
MODPATH-RW Version 0.0.1               
Program compiled Mar 30 2023 10:07:59 with GFORTRAN compiler (ver. 12.1.0)                

This program has been developed and published by the Hydrogeology
Group (GHS), Universitat Politècnica de Catalunya (UPC). It is free
to use and modify under the condition that neither the GHS nor UPC
shall be considered legally responsible for any wrongdoing or damages
derived from its use. The code is an extension of software originally
released by the U.S. Geological Survey (USGS), without endorsement
from this institution, explicit or implied. Their release conditions
also apply (see disclaimer below).

This software has been approved for release by the U.S. Geological
Survey (USGS). Although the software has been subjected to rigorous
review, the USGS reserves the right to update the software as needed
pursuant to further analysis and review. No warranty, expressed or
implied, is made by the USGS or the U.S. Government as to the
functionality of the software and related material nor shall the
fact of release constitute any such warranty. Furthermore, the
software is released on condition that neither the USGS nor the U.S.
Government shall be held liable for any damages resulting from its
authorized or unauthorized use. Also refer to the USGS Water
Resources Software User Rights Notice for complete use, copyright,
and distribution information.


MODPATH-RW name file data
-------------------------
   MPBAS File: mpathrw.mpbas
  GRBDIS File: mf6_model.dis.grb
    TDIS File: mf6_sim.tdis
    HEAD File: mf6_model_steady.hds
  BUDGET File: mf6_model_steady.bud
     DSP File: mpathrw.dsp
  RWOPTS File: mpathrw.rwopts
      IC File: mpathrw.ic.npx40
   GPKDE File: mpathrw.gpkde

Grid data
---------
Grid file type: MODFLOW-6 DIS binary grid file.
Time discretization file type: MODFLOW-6 time discretization file.
 # File generated by Flopy version 3.3.6 on 03/28/2023 at 09:17:49.

 Time discretization file data
 -----------------------------
 Stress period count =          1
 Period length:      100.00000 Time step count:         1 Time step multiplier:        1.00000

 The budget file was opened successfully.

 MODPATH basic data file data
 ----------------------------
 # # MPBAS package for MODPATH 7 generated by Flopy 3.3.6
 Aquifer head is set to  1.00000E+30 at cells with IDOMAIN = 0.
 Aquifer head is set to -1.00000E+30 at all dry cells when Newton-Raphson rewetting is not active.


                 POROSITY =  0.350000     FOR LAYER   1

 MODPATH-RW simulation file data
 -------------------------------
 # MPSIM package for MODPATH 7 generated by Flopy 3.3.6
RWPT with Timeseries Analysis (Simulation type = 5)
Forward tracking (Tracking direction =  1)
Stop particles when they enter weak sink cells. (Weak sink option = 2)
Let particles pass through weak source cells for backtracking simulations (Weak source option = 1)
No timeseries output, skip TimeseriesWriter (Timeseries output option = 2)
Particle groups with default mass and soluteid (ParticlesMassOption = 0)
Solutes with the same dispersion (SolutesOption= 0)
Reference time =   0.0000000E+00
Specify a limit for tracking time (Stoping time option =  3)
Stop time =   0.1501000E+03
The zone value for all cells = 1

The retardation factor for all cells = 1

Number of particle groups =     0

The simulation will be run with stoptime =   0.1501000E+03

 MODPATH-RW GPKDE file data
 --------------------------
GPKDE reconstruction is enabled
GPKDE reconstruction with kernel database
GPKDE output is requested to be expressed as resident concentration.
Porosity and retardation are spatially uniform, GPKDE output is given as concentration.

 MODPATH-RW OBS file data
 --------------------------
No observations were specified

 MODPATH-RW RWOPTS file data
 ---------------------------
RW time step will be selected with the MIN_ADV_DISP criteria.
RW advection integration is EULERIAN.
Random displacements for 2 dimensions.
Random displacements for X dimension.
Random displacements for Y dimension.

 MODPATH-RW IC file data
 -----------------------
Given number of initial conditions =     1
Processing initial condition:     1



                       IC           FOR LAYER   1
 READING ON UNIT  123 WITH FORMAT: (1000E15.6)         
Original particle mass for initial condition =   2.187500000E-004
Effective particle mass for initial condition =   2.082093992E-004
Retardation factor is unitary so total dissolved mass is the total mass.
Total accumulated mass for initial condition =   9.800000000E+002
Total number of particles for this initial condition =    4706800
Total number of particles on initial conditions =    4706800


 MODPATH-RW SRC file data
 ------------------------
SRC package was not specified in name file.

 Budget File Data
 ----------------
    Budget file type:  Unstructured grid
  Budget file format:  Compact
    Budget precision:  Double

 MODPATH-RW IMP file data
 ------------------------
IMP package was not specified in name file.

 MODPATH-RW SPC file data
 ------------------------
SPC package was not specified in name file.
ParticlesMassOption.ne.2. Will create a single solute and leave.

 MODPATH-RW DSP file data
 ------------------------
Given number of dispersion parameters/models =     1
Simulation is single dispersion, will read only first dispersion data.
Processing dispersion data:     1
Dispersion model is linear, isotropic: will read dmeff and dispersivities

           DMEFF          =   0.00000     FOR LAYER   1

          ALPHAL          =  2.000000E-02 FOR LAYER   1

         ALPHATH          =  2.000000E-03 FOR LAYER   1

 TransportModelData: verify SPC-DSP relations 
 ---------------------------------------------
Simulation is single dispersion. Is consistent.

------------------------------
 GPKDE module is initializing 
 GPKDE initializing Histogram 
   Histogram determines dimensions to be analyzed based on binSizes 
   Will compute Histogram considering            2  dimensions 
   binSize            :   1.0000000000000000        1.0000000000000000        0.0000000000000000     
   domainSize         :   1000.0000000000000        200.00000000000000        0.0000000000000000     
   domainOrigin       :   0.0000000000000000        0.0000000000000000        0.0000000000000000     
   Computed nBins     :        1000         200           1
   Dimensionality for reconstruction is determined from nBins 
   Will perform reconstruction in            2  dimensions.
 Initializing kernels database with parameters: 
  minHOverLambda         :  0.25000000000000000     
  maxHOverLambda         :   15.000000000000000     
  deltaHOverLambda       :   9.5217315400513772E-002
 Database is for kernels 2D 
 GPKDE module is initialized  
------------------------------



 Run particle tracking simulation ...

 ----------------------------------------------------------------------------------------------
 Processing Time Step     1 Period     1.  Time =  1.00000E+02  Steady-state flow                                                    
   (Cumulative step =      1)
 ----------------------------------------------------------------------------------------------

GPKDE histogram statistics 
   Max count         :   1681.0000002583520     
   Max raw density   :   1681.0000002583520     
   Min count         :   0.0000000000000000     
   Min raw density   :   0.0000000000000000     
   Mean raw density  :   1681.0000002583668     


GPKDE data points statistics 
   Mean coordinates                 :   30.000000000000000        99.999999999999829       0.50000000000000000     
   Std. dev. coordinates            :   5.7734983986972495        40.414518229961992        0.0000000000000000     
   Std. sigma scale                 :   15.275246521244963     
   Global smoothing scale Silverman :   1.1799599597622337     

 GPKDE compute density 
   initialSmoothing   :   1.1799599597622337        1.1799599597622337        0.0000000000000000     
 GPKDE Optimization -- Time: 0 -- Specie: 1
|-----------------------------------------------------------|
| Loop |  hHatOverLambda |     ALMISE      |      RMSE      |
|-----------------------------------------------------------|
     0  1.179959960E+000  0.000000000E+000  4.210452776E-005
     1  6.549681288E-001  3.916182042E-007  2.471098408E-005
     2  5.477454918E-001  2.005214319E-006  2.123008440E-005
     3  5.270239874E-001  5.119542304E-006  1.987361012E-005
     4  5.397082780E-001  8.673816395E-006  1.878864018E-005
     5  5.652253547E-001  1.602319663E-005  1.887601110E-005
     6  5.743876220E-001  2.434512416E-005  1.898219163E-005
     7  5.470958712E-001  2.400745712E-005  2.026382848E-005
     8  5.493784952E-001  2.096440979E-005  1.888204288E-005
     9  5.625444316E-001  2.191370604E-005  1.888871341E-005
    10  5.759946607E-001  2.425699608E-005  1.882915167E-005
    - ALMISE convergence    2.4237E-05

GPKDE histogram statistics 
   Max count         :   1839.0000002826321     
   Max raw density   :   1839.0000002826321     
   Min count         :   0.0000000000000000     
   Min raw density   :   0.0000000000000000     
   Mean raw density  :   1399.5837052403781     


GPKDE data points statistics 
   Mean coordinates                 :   34.163658768211995        100.50490185359999       0.50000000000000000     
   Std. dev. coordinates            :   7.1513586559809319        41.025685099805898        0.0000000000000000     
   Std. sigma scale                 :   17.128613144561495     
   Global smoothing scale Silverman :   1.3231261209912315     

 GPKDE compute density 
   initialSmoothing   :   1.3231261209912315        1.3231261209912315        0.0000000000000000     
 GPKDE Optimization -- Time: 1 -- Specie: 1
|-----------------------------------------------------------|
| Loop |  hHatOverLambda |     ALMISE      |      RMSE      |
|-----------------------------------------------------------|
     0  1.323126121E+000  0.000000000E+000  4.691479563E-005
     1  6.559951177E-001  3.565168951E-007  2.630768700E-005
     2  5.273224699E-001  1.397058390E-006  1.955146268E-005
     3  5.040819992E-001  2.582078623E-006  1.912275272E-005
    - Density convergence    7.1561E-03

GPKDE histogram statistics 
   Max count         :   1945.0000002989213     
   Max raw density   :   1945.0000002989213     
   Min count         :   0.0000000000000000     
   Min raw density   :   0.0000000000000000     
   Mean raw density  :   1285.6596560293315     


GPKDE data points statistics 
   Mean coordinates                 :   38.102794180013390        101.07700524958302       0.50000000000000000     
   Std. dev. coordinates            :   9.3014441789267170        41.613165804800587        0.0000000000000000     
   Std. sigma scale                 :   19.673905022688675     
   Global smoothing scale Silverman :   1.5197411149241287     

 GPKDE compute density 
   initialSmoothing   :   1.5197411149241287        1.5197411149241287        0.0000000000000000     
 GPKDE Optimization -- Time: 2 -- Specie: 1
|-----------------------------------------------------------|
| Loop |  hHatOverLambda |     ALMISE      |      RMSE      |
|-----------------------------------------------------------|
     0  1.519741115E+000  0.000000000E+000  5.589747601E-005
     1  7.059020326E-001  2.837681351E-007  3.107168549E-005
     2  5.134256236E-001  1.232769949E-006  2.140162427E-005
    - Density convergence    9.2588E-03

GPKDE histogram statistics 
   Max count         :   1921.0000002952333     
   Max raw density   :   1921.0000002952333     
   Min count         :   0.0000000000000000     
   Min raw density   :   0.0000000000000000     
   Mean raw density  :   1197.0498475898762     


GPKDE data points statistics 
   Mean coordinates                 :   41.936093321843344        101.58343271807580       0.50000000000000000     
   Std. dev. coordinates            :   11.565203118412635        41.886219467548074        0.0000000000000000     
   Std. sigma scale                 :   22.009603267769343     
   Global smoothing scale Silverman :   1.7001657256463838     

 GPKDE compute density 
   initialSmoothing   :   1.7001657256463838        1.7001657256463838        0.0000000000000000     
 GPKDE Optimization -- Time: 3 -- Specie: 1
|-----------------------------------------------------------|
| Loop |  hHatOverLambda |     ALMISE      |      RMSE      |
|-----------------------------------------------------------|
     0  1.700165726E+000  0.000000000E+000  6.770211061E-005
     1  7.275683513E-001  2.450249636E-007  3.362334245E-005
     2  5.128441951E-001  1.250283545E-006  2.264540357E-005
    - Density convergence    8.9338E-03

GPKDE histogram statistics 
   Max count         :   1931.0000002967699     
   Max raw density   :   1931.0000002967699     
   Min count         :   0.0000000000000000     
   Min raw density   :   0.0000000000000000     
   Mean raw density  :   1116.9435217663520     


GPKDE data points statistics 
   Mean coordinates                 :   45.620442870109230        101.93002540216385       0.50000000000000000     
   Std. dev. coordinates            :   13.825692518793586        41.874651388856094        0.0000000000000000     
   Std. sigma scale                 :   24.061297854313619     
   Global smoothing scale Silverman :   1.8586520360582086     

 GPKDE compute density 
   initialSmoothing   :   1.8586520360582086        1.8586520360582086        0.0000000000000000     
 GPKDE Optimization -- Time: 4 -- Specie: 1
|-----------------------------------------------------------|
| Loop |  hHatOverLambda |     ALMISE      |      RMSE      |
|-----------------------------------------------------------|
     0  1.858652036E+000  0.000000000E+000  7.210827941E-005
     1  7.455908911E-001  2.152464334E-007  3.491214651E-005
     2  5.155276586E-001  1.176808734E-006  2.328487121E-005
     3  5.015630084E-001  3.876219741E-006  2.303565546E-005
    - Density convergence    5.5874E-03

GPKDE histogram statistics 
   Max count         :   1944.0000002987676     
   Max raw density   :   1944.0000002987676     
   Min count         :   0.0000000000000000     
   Min raw density   :   0.0000000000000000     
   Mean raw density  :   1051.7988828432212     


GPKDE data points statistics 
   Mean coordinates                 :   49.376782872057383        102.12442472770162       0.50000000000000000     
   Std. dev. coordinates            :   16.308353160785803        41.783255185320840        0.0000000000000000     
   Std. sigma scale                 :   26.103947628078149     
   Global smoothing scale Silverman :   2.0164396659669857     

 GPKDE compute density 
   initialSmoothing   :   2.0164396659669857        2.0164396659669857        0.0000000000000000     
 GPKDE Optimization -- Time: 5 -- Specie: 1
|-----------------------------------------------------------|
| Loop |  hHatOverLambda |     ALMISE      |      RMSE      |
|-----------------------------------------------------------|
     0  2.016439666E+000  0.000000000E+000  7.348380614E-005
     1  7.707971548E-001  1.845379827E-007  3.674045872E-005
     2  5.215261345E-001  1.111950019E-006  2.432808563E-005
     3  5.032655823E-001  3.970293881E-006  2.399712629E-005
    - Density convergence    5.6326E-03

GPKDE histogram statistics 
   Max count         :   2043.0000003139812     
   Max raw density   :   2043.0000003139812     
   Min count         :   0.0000000000000000     
   Min raw density   :   0.0000000000000000     
   Mean raw density  :   989.86330193972583     


GPKDE data points statistics 
   Mean coordinates                 :   53.214972981316947        101.91606055538449       0.50000000000000000     
   Std. dev. coordinates            :   18.843838122263133        41.839342116600804        0.0000000000000000     
   Std. sigma scale                 :   28.078707056900104     
   Global smoothing scale Silverman :   2.1689830015479901     

 GPKDE compute density 
   initialSmoothing   :   2.1689830015479901        2.1689830015479901        0.0000000000000000     
 GPKDE Optimization -- Time: 6 -- Specie: 1
|-----------------------------------------------------------|
| Loop |  hHatOverLambda |     ALMISE      |      RMSE      |
|-----------------------------------------------------------|
     0  2.168983002E+000  0.000000000E+000  7.987693094E-005
     1  8.073185648E-001  1.559782464E-007  3.856884280E-005
     2  5.216410267E-001  1.018254755E-006  2.368785495E-005
     3  5.041697260E-001  4.120669630E-006  2.335848323E-005
    - Density convergence    6.2430E-03

GPKDE histogram statistics 
   Max count         :   1987.0000003053756     
   Max raw density   :   1987.0000003053756     
   Min count         :   0.0000000000000000     
   Min raw density   :   0.0000000000000000     
   Mean raw density  :   939.66859667067433     


GPKDE data points statistics 
   Mean coordinates                 :   57.098257539956862        101.46147460733758       0.50000000000000000     
   Std. dev. coordinates            :   21.367411252215856        42.027083390107862        0.0000000000000000     
   Std. sigma scale                 :   29.966814554229899     
   Global smoothing scale Silverman :   2.3148327751328202     

 GPKDE compute density 
   initialSmoothing   :   2.3148327751328202        2.3148327751328202        0.0000000000000000     
 GPKDE Optimization -- Time: 7 -- Specie: 1
|-----------------------------------------------------------|
| Loop |  hHatOverLambda |     ALMISE      |      RMSE      |
|-----------------------------------------------------------|
     0  2.314832775E+000  0.000000000E+000  8.595951791E-005
     1  8.322726954E-001  1.366862726E-007  4.018494706E-005
     2  5.262091797E-001  9.284819396E-007  2.408066965E-005
     3  5.053776521E-001  3.986565780E-006  2.370630238E-005
    - Density convergence    6.1580E-03

GPKDE histogram statistics 
   Max count         :   1949.0000002995362     
   Max raw density   :   1949.0000002995362     
   Min count         :   0.0000000000000000     
   Min raw density   :   0.0000000000000000     
   Mean raw density  :   891.77718846597497     


GPKDE data points statistics 
   Mean coordinates                 :   61.012741374409664        101.04156103030201       0.50000000000000000     
   Std. dev. coordinates            :   23.718953069060241        42.257604813725891        0.0000000000000000     
   Std. sigma scale                 :   31.659218963639304     
   Global smoothing scale Silverman :   2.4455651620734002     

 GPKDE compute density 
   initialSmoothing   :   2.4455651620734002        2.4455651620734002        0.0000000000000000     
 GPKDE Optimization -- Time: 8 -- Specie: 1
|-----------------------------------------------------------|
| Loop |  hHatOverLambda |     ALMISE      |      RMSE      |
|-----------------------------------------------------------|
     0  2.445565162E+000  0.000000000E+000  8.575835665E-005
     1  8.673839877E-001  1.185859492E-007  4.274453285E-005
     2  5.274206742E-001  8.258558620E-007  2.403535061E-005
     3  5.047724674E-001  4.005222781E-006  2.364132105E-005
    - Density convergence    5.6738E-03

GPKDE histogram statistics 
   Max count         :   1987.0000003053756     
   Max raw density   :   1987.0000003053756     
   Min count         :   0.0000000000000000     
   Min raw density   :   0.0000000000000000     
   Mean raw density  :   843.81498758039015     


GPKDE data points statistics 
   Mean coordinates                 :   64.953478947519471        100.79250771505224       0.50000000000000000     
   Std. dev. coordinates            :   25.782915679227990        42.501737838585370        0.0000000000000000     
   Std. sigma scale                 :   33.103152763942290     
   Global smoothing scale Silverman :   2.5571040538703476     

 GPKDE compute density 
   initialSmoothing   :   2.5571040538703476        2.5571040538703476        0.0000000000000000     
 GPKDE Optimization -- Time: 9 -- Specie: 1
|-----------------------------------------------------------|
| Loop |  hHatOverLambda |     ALMISE      |      RMSE      |
|-----------------------------------------------------------|
     0  2.557104054E+000  0.000000000E+000  8.887082975E-005
     1  8.889040394E-001  1.066302941E-007  4.311504361E-005
     2  5.290109625E-001  7.660453527E-007  2.383094118E-005
     3  5.045754961E-001  3.909050784E-006  2.342057898E-005
    - Density convergence    6.1581E-03

GPKDE histogram statistics 
   Max count         :   2015.0000003096784     
   Max raw density   :   2015.0000003096784     
   Min count         :   0.0000000000000000     
   Min raw density   :   0.0000000000000000     
   Mean raw density  :   803.48241733072791     


GPKDE data points statistics 
   Mean coordinates                 :   69.031093936557255        100.67243934742289       0.50000000000000000     
   Std. dev. coordinates            :   27.841881847338403        42.762731585792444        0.0000000000000000     
   Std. sigma scale                 :   34.504998482554363     
   Global smoothing scale Silverman :   2.6653917869308774     

 GPKDE compute density 
   initialSmoothing   :   2.6653917869308774        2.6653917869308774        0.0000000000000000     
 GPKDE Optimization -- Time: 10 -- Specie: 1
|-----------------------------------------------------------|
| Loop |  hHatOverLambda |     ALMISE      |      RMSE      |
|-----------------------------------------------------------|
     0  2.665391787E+000  0.000000000E+000  8.793007966E-005
     1  9.173154145E-001  9.523538479E-008  4.529553466E-005
     2  5.342484427E-001  6.689997632E-007  2.429630058E-005
     3  5.049735654E-001  3.984820929E-006  2.381610602E-005
    - Bandwidth convergence    8.9932E-03

GPKDE histogram statistics 
   Max count         :   2038.0000003132129     
   Max raw density   :   2038.0000003132129     
   Min count         :   0.0000000000000000     
   Min raw density   :   0.0000000000000000     
   Mean raw density  :   768.08094006583110     


GPKDE data points statistics 
   Mean coordinates                 :   73.184622952153191        100.61611407989427       0.50000000000000000     
   Std. dev. coordinates            :   29.887237455456635        43.042578578839290        0.0000000000000000     
   Std. sigma scale                 :   35.866750154996218     
   Global smoothing scale Silverman :   2.7705823936019955     

 GPKDE compute density 
   initialSmoothing   :   2.7705823936019955        2.7705823936019955        0.0000000000000000     
 GPKDE Optimization -- Time: 11 -- Specie: 1
|-----------------------------------------------------------|
| Loop |  hHatOverLambda |     ALMISE      |      RMSE      |
|-----------------------------------------------------------|
     0  2.770582394E+000  0.000000000E+000  9.010066919E-005
     1  9.160482242E-001  9.121118557E-008  4.437892045E-005
     2  5.355954684E-001  6.597142850E-007  2.378866362E-005
     3  5.074756233E-001  4.214965810E-006  2.334816126E-005
    - Bandwidth convergence    9.0814E-03

GPKDE histogram statistics 
   Max count         :   2029.0000003118298     
   Max raw density   :   2029.0000003118298     
   Min count         :   0.0000000000000000     
   Min raw density   :   0.0000000000000000     
   Mean raw density  :   734.17563573910616     


GPKDE data points statistics 
   Mean coordinates                 :   77.325592413387142        100.66016872237954       0.50000000000000000     
   Std. dev. coordinates            :   31.875234261041648        43.283603914039674        0.0000000000000000     
   Std. sigma scale                 :   37.143976825619433     
   Global smoothing scale Silverman :   2.8692437362375967     

 GPKDE compute density 
   initialSmoothing   :   2.8692437362375967        2.8692437362375967        0.0000000000000000     
 GPKDE Optimization -- Time: 12 -- Specie: 1
|-----------------------------------------------------------|
| Loop |  hHatOverLambda |     ALMISE      |      RMSE      |
|-----------------------------------------------------------|
     0  2.869243736E+000  0.000000000E+000  8.699160983E-005
     1  9.465807241E-001  8.043056087E-008  4.326860213E-005
     2  5.396690123E-001  5.853147570E-007  2.278657152E-005
     3  5.080877239E-001  3.823088928E-006  2.228300126E-005
    - Bandwidth convergence    9.7638E-03

GPKDE histogram statistics 
   Max count         :   1977.0000003038390     
   Max raw density   :   1977.0000003038390     
   Min count         :   0.0000000000000000     
   Min raw density   :   0.0000000000000000     
   Mean raw density  :   703.34728044282963     


GPKDE data points statistics 
   Mean coordinates                 :   81.428324006806832        100.73686004955711       0.50000000000000000     
   Std. dev. coordinates            :   33.864945107527490        43.562111321373784        0.0000000000000000     
   Std. sigma scale                 :   38.408703553573964     
   Global smoothing scale Silverman :   2.9669395015368281     

 GPKDE compute density 
   initialSmoothing   :   2.9669395015368281        2.9669395015368281        0.0000000000000000     
 GPKDE Optimization -- Time: 13 -- Specie: 1
|-----------------------------------------------------------|
| Loop |  hHatOverLambda |     ALMISE      |      RMSE      |
|-----------------------------------------------------------|
     0  2.966939502E+000  0.000000000E+000  8.470640115E-005
     1  9.578353985E-001  7.503179375E-008  4.265085572E-005
     2  5.431217650E-001  5.565142517E-007  2.215923291E-005
     3  5.100264795E-001  3.564495760E-006  2.162416339E-005
    - Bandwidth convergence    9.9460E-03

GPKDE histogram statistics 
   Max count         :   1976.0000003036853     
   Max raw density   :   1976.0000003036853     
   Min count         :   0.0000000000000000     
   Min raw density   :   0.0000000000000000     
   Mean raw density  :   671.82415083120475     


GPKDE data points statistics 
   Mean coordinates                 :   85.497185152278107        100.84562405946613       0.50000000000000000     
   Std. dev. coordinates            :   35.916838041790939        43.862261018138241        0.0000000000000000     
   Std. sigma scale                 :   39.691229826439383     
   Global smoothing scale Silverman :   3.0660102201153814     

 GPKDE compute density 
   initialSmoothing   :   3.0660102201153814        3.0660102201153814        0.0000000000000000     
 GPKDE Optimization -- Time: 14 -- Specie: 1
|-----------------------------------------------------------|
| Loop |  hHatOverLambda |     ALMISE      |      RMSE      |
|-----------------------------------------------------------|
     0  3.066010220E+000  0.000000000E+000  8.564845863E-005
     1  9.574285698E-001  7.070205349E-008  4.144284711E-005
     2  5.463166863E-001  5.331001781E-007  2.136961727E-005
     3  5.124834795E-001  3.552760455E-006  2.084772856E-005
     4  5.101808956E-001  6.970878258E-006  2.083045456E-005
    - Density convergence    7.5845E-03

GPKDE histogram statistics 
   Max count         :   1926.0000002960016     
   Max raw density   :   1926.0000002960016     
   Min count         :   0.0000000000000000     
   Min raw density   :   0.0000000000000000     
   Mean raw density  :   643.09331885823292     


GPKDE data points statistics 
   Mean coordinates                 :   89.628556960464579        101.06169425702173       0.50000000000000000     
   Std. dev. coordinates            :   38.242738845490685        44.112970473718249        0.0000000000000000     
   Std. sigma scale                 :   41.073115410512123     
   Global smoothing scale Silverman :   3.1727561018208368     

 GPKDE compute density 
   initialSmoothing   :   3.1727561018208368        3.1727561018208368        0.0000000000000000     
 GPKDE Optimization -- Time: 15 -- Specie: 1
|-----------------------------------------------------------|
| Loop |  hHatOverLambda |     ALMISE      |      RMSE      |
|-----------------------------------------------------------|
     0  3.172756102E+000  0.000000000E+000  8.326996905E-005
     1  9.761783177E-001  6.161872013E-008  4.078174811E-005
     2  5.538737505E-001  4.771956673E-007  2.092187547E-005
     3  5.151557125E-001  3.395922277E-006  2.027847485E-005
     4  5.112844203E-001  6.961049230E-006  2.022817091E-005
    - Bandwidth convergence    8.4183E-03

GPKDE histogram statistics 
   Max count         :   1949.0000002995362     
   Max raw density   :   1949.0000002995362     
   Min count         :   0.0000000000000000     
   Min raw density   :   0.0000000000000000     
   Mean raw density  :   611.59043668443860     


GPKDE data points statistics 
   Mean coordinates                 :   93.831615419020636        101.25089015334845       0.50000000000000000     
   Std. dev. coordinates            :   40.851247345110217        44.419139859135832        0.0000000000000000     
   Std. sigma scale                 :   42.597855218808874     
   Global smoothing scale Silverman :   3.2905369782435812     

 GPKDE compute density 
   initialSmoothing   :   3.2905369782435812        3.2905369782435812        0.0000000000000000     
 GPKDE Optimization -- Time: 16 -- Specie: 1
|-----------------------------------------------------------|
| Loop |  hHatOverLambda |     ALMISE      |      RMSE      |
|-----------------------------------------------------------|
     0  3.290536978E+000  0.000000000E+000  8.452858352E-005
     1  9.694330406E-001  5.770441843E-008  3.971145274E-005
     2  5.554906728E-001  4.520484696E-007  2.045536460E-005
     3  5.148036515E-001  3.212237803E-006  1.978383845E-005
     4  5.122124017E-001  7.436635645E-006  1.975199971E-005
    - Density convergence    8.6373E-03

GPKDE histogram statistics 
   Max count         :   2002.0000003076807     