
MODPATH-RW Version 0.0.1               
Program compiled Mar 28 2023 10:15:59 with GFORTRAN compiler (ver. 12.1.0)                

This program has been developed and published by the Hydrogeology
Group (GHS), Universitat Politècnica de Catalunya (UPC). It is free
to use and modify under the condition that neither the GHS nor UPC
shall be considered legally responsible for any wrongdoing or damages
derived from its use. The code is an extension of software originally
released by the U.S. Geological Survey (USGS), without endorsement
from this institution, explicit or implied. Their release conditions
also apply (see disclaimer below).

This software has been approved for release by the U.S. Geological
Survey (USGS). Although the software has been subjected to rigorous
review, the USGS reserves the right to update the software as needed
pursuant to further analysis and review. No warranty, expressed or
implied, is made by the USGS or the U.S. Government as to the
functionality of the software and related material nor shall the
fact of release constitute any such warranty. Furthermore, the
software is released on condition that neither the USGS nor the U.S.
Government shall be held liable for any damages resulting from its
authorized or unauthorized use. Also refer to the USGS Water
Resources Software User Rights Notice for complete use, copyright,
and distribution information.


MODPATH-RW name file data
-------------------------
   MPBAS File: mpathrw.mpbas
  GRBDIS File: mf6_model.dis.grb
    TDIS File: mf6_sim.tdis
    HEAD File: mf6_model_steady.hds
  BUDGET File: mf6_model_steady.bud
     DSP File: mpathrw.dsp
  RWOPTS File: mpathrw.rwopts
      IC File: mpathrw.ic.npx15
   GPKDE File: mpathrw.gpkde

Grid data
---------
Grid file type: MODFLOW-6 DIS binary grid file.
Time discretization file type: MODFLOW-6 time discretization file.
 # File generated by Flopy version 3.3.6 on 03/28/2023 at 09:17:49.

 Time discretization file data
 -----------------------------
 Stress period count =          1
 Period length:      100.00000 Time step count:         1 Time step multiplier:        1.00000

 The budget file was opened successfully.

 MODPATH basic data file data
 ----------------------------
 # # MPBAS package for MODPATH 7 generated by Flopy 3.3.6
 Aquifer head is set to  1.00000E+30 at cells with IDOMAIN = 0.
 Aquifer head is set to -1.00000E+30 at all dry cells when Newton-Raphson rewetting is not active.


                 POROSITY =  0.350000     FOR LAYER   1

 MODPATH-RW simulation file data
 -------------------------------
 # MPSIM package for MODPATH 7 generated by Flopy 3.3.6
RWPT with Timeseries Analysis (Simulation type = 5)
Forward tracking (Tracking direction =  1)
Stop particles when they enter weak sink cells. (Weak sink option = 2)
Let particles pass through weak source cells for backtracking simulations (Weak source option = 1)
No timeseries output, skip TimeseriesWriter (Timeseries output option = 2)
Particle groups with default mass and soluteid (ParticlesMassOption = 0)
Solutes with the same dispersion (SolutesOption= 0)
Reference time =   0.0000000E+00
Specify a limit for tracking time (Stoping time option =  3)
Stop time =   0.1501000E+03
The zone value for all cells = 1

The retardation factor for all cells = 1

Number of particle groups =     0

The simulation will be run with stoptime =   0.1501000E+03

 MODPATH-RW GPKDE file data
 --------------------------
GPKDE reconstruction is enabled
GPKDE reconstruction with kernel database
GPKDE output is requested to be expressed as resident concentration.
Porosity and retardation are spatially uniform, GPKDE output is given as concentration.

 MODPATH-RW OBS file data
 --------------------------
No observations were specified

 MODPATH-RW RWOPTS file data
 ---------------------------
RW time step will be selected with the MIN_ADV_DISP criteria.
RW advection integration is EULERIAN.
Random displacements for 2 dimensions.
Random displacements for X dimension.
Random displacements for Y dimension.

 MODPATH-RW IC file data
 -----------------------
Given number of initial conditions =     1
Processing initial condition:     1



                       IC           FOR LAYER   1
 READING ON UNIT  123 WITH FORMAT: (1000E15.6)         
Original particle mass for initial condition =   1.555500000E-003
Effective particle mass for initial condition =   1.367187500E-003
Retardation factor is unitary so total dissolved mass is the total mass.
Total accumulated mass for initial condition =   9.800000000E+002
Total number of particles for this initial condition =     716800
Total number of particles on initial conditions =     716800


 MODPATH-RW SRC file data
 ------------------------
SRC package was not specified in name file.

 Budget File Data
 ----------------
    Budget file type:  Unstructured grid
  Budget file format:  Compact
    Budget precision:  Double

 MODPATH-RW IMP file data
 ------------------------
IMP package was not specified in name file.

 MODPATH-RW SPC file data
 ------------------------
SPC package was not specified in name file.
ParticlesMassOption.ne.2. Will create a single solute and leave.

 MODPATH-RW DSP file data
 ------------------------
Given number of dispersion parameters/models =     1
Simulation is single dispersion, will read only first dispersion data.
Processing dispersion data:     1
Dispersion model is linear, isotropic: will read dmeff and dispersivities

           DMEFF          =   0.00000     FOR LAYER   1

          ALPHAL          =  2.000000E-02 FOR LAYER   1

         ALPHATH          =  2.000000E-03 FOR LAYER   1

 TransportModelData: verify SPC-DSP relations 
 ---------------------------------------------
Simulation is single dispersion. Is consistent.

------------------------------
 GPKDE module is initializing 
 GPKDE initializing Histogram 
   Histogram determines dimensions to be analyzed based on binSizes 
   Will compute Histogram considering            2  dimensions 
   binSize            :   1.0000000000000000        1.0000000000000000        0.0000000000000000     
   domainSize         :   1000.0000000000000        200.00000000000000        0.0000000000000000     
   domainOrigin       :   0.0000000000000000        0.0000000000000000        0.0000000000000000     
   Computed nBins     :        1000         200           1
   Dimensionality for reconstruction is determined from nBins 
   Will perform reconstruction in            2  dimensions.
 Initializing kernels database with parameters: 
  minHOverLambda         :  0.25000000000000000     
  maxHOverLambda         :   15.000000000000000     
  deltaHOverLambda       :   9.5217315400513772E-002
 Database is for kernels 2D 
 GPKDE module is initialized  
------------------------------



 Run particle tracking simulation ...

 ----------------------------------------------------------------------------------------------
 Processing Time Step     1 Period     1.  Time =  1.00000E+02  Steady-state flow                                                    
   (Cumulative step =      1)
 ----------------------------------------------------------------------------------------------

GPKDE histogram statistics 
   Max count         :   256.00000000556474     
   Max raw density   :   256.00000000556474     
   Min count         :   0.0000000000000000     
   Min raw density   :   0.0000000000000000     
   Mean raw density  :   256.00000000557793     


GPKDE data points statistics 
   Mean coordinates                 :   30.000000000000000        100.00000000000000       0.50000000000000000     
   Std. dev. coordinates            :   5.7734745008963193        40.414514815997727        0.0000000000000000     
   Std. sigma scale                 :   15.275214262204619     
   Global smoothing scale Silverman :   1.6146843820406034     

 GPKDE compute density 
   initialSmoothing   :   1.6146843820406034        1.6146843820406034        0.0000000000000000     
 GPKDE Optimization -- Time: 0 -- Specie: 1
|-----------------------------------------------------------|
| Loop |  hHatOverLambda |     ALMISE      |      RMSE      |
|-----------------------------------------------------------|
     0  1.614684382E+000  0.000000000E+000  4.999966431E-005
     1  1.004548071E+000  8.096219815E-009  3.538964891E-005
     2  7.558288014E-001  2.605627163E-008  2.457392197E-005
     3  6.604341403E-001  6.079887802E-008  2.147513384E-005
     4  6.508799940E-001  1.301825264E-007  1.902872317E-005
     5  6.654588603E-001  1.866038065E-007  1.892988251E-005
     6  6.978669567E-001  3.523901354E-007  1.913460926E-005
     7  6.443106245E-001  3.150990506E-007  2.354955708E-005
     8  6.023354009E-001  2.313834785E-007  1.925209806E-005
     9  6.465691050E-001  2.653463591E-007  1.923809855E-005
    10  6.669291074E-001  2.960220318E-007  1.901236765E-005
    11  6.912018396E-001  3.594899301E-007  1.951862707E-005
    12  6.507099516E-001  3.297769830E-007  2.080874592E-005
    13  6.242211735E-001  2.412724856E-007  1.910049847E-005
    14  6.728934784E-001  2.946889210E-007  1.942084291E-005
    15  6.737773059E-001  3.707562808E-007  1.893682523E-005
    16  6.792539554E-001  3.745562218E-007  2.055966820E-005
    17  6.050791739E-001  2.245037963E-007  1.940045170E-005
    18  6.608978739E-001  2.312815686E-007  1.897454574E-005
    19  7.053170049E-001  3.534727479E-007  1.940978746E-005
    20  6.340572581E-001  2.845359674E-007  2.476806325E-005
    - Max loops 

GPKDE histogram statistics 
   Max count         :   308.00000000669581     
   Max raw density   :   308.00000000669581     
   Min count         :   0.0000000000000000     
   Min raw density   :   0.0000000000000000     
   Mean raw density  :   218.87022901238956     


GPKDE data points statistics 
   Mean coordinates                 :   34.162713300759101        100.50421616179489       0.50000000000000000     
   Std. dev. coordinates            :   7.1512169711029872        41.025623598823415        0.0000000000000000     
   Std. sigma scale                 :   17.128430626592419     
   Global smoothing scale Silverman :   1.8105807844578858     

 GPKDE compute density 
   initialSmoothing   :   1.8105807844578858        1.8105807844578858        0.0000000000000000     
 GPKDE Optimization -- Time: 1 -- Specie: 1
|-----------------------------------------------------------|
| Loop |  hHatOverLambda |     ALMISE      |      RMSE      |
|-----------------------------------------------------------|
     0  1.810580784E+000  0.000000000E+000  5.729556807E-005
     1  1.035168976E+000  7.164174476E-009  4.136328938E-005
     2  7.604130452E-001  2.194304218E-008  3.063832069E-005
     3  6.195691649E-001  3.808935447E-008  2.492493944E-005
     4  5.849186862E-001  5.248113289E-008  2.307937502E-005
     5  5.663445844E-001  6.034577750E-008  2.257553982E-005
     6  5.649310695E-001  6.305283020E-008  2.245875199E-005
     7  5.623587786E-001  6.479756119E-008  2.238853222E-005
    - ALMISE convergence    6.5080E-08

GPKDE histogram statistics 
   Max count         :   309.00000000671758     
   Max raw density   :   309.00000000671758     
   Min count         :   0.0000000000000000     
   Min raw density   :   0.0000000000000000     
   Mean raw density  :   202.42869246415620     


GPKDE data points statistics 
   Mean coordinates                 :   38.102519937384663        101.07691140622289       0.50000000000000000     
   Std. dev. coordinates            :   9.3013591248512864        41.613461149680688        0.0000000000000000     
   Std. sigma scale                 :   19.673884887871715     
   Global smoothing scale Silverman :   2.0796510030705302     

 GPKDE compute density 
   initialSmoothing   :   2.0796510030705302        2.0796510030705302        0.0000000000000000     
 GPKDE Optimization -- Time: 2 -- Specie: 1
|-----------------------------------------------------------|
| Loop |  hHatOverLambda |     ALMISE      |      RMSE      |
|-----------------------------------------------------------|
     0  2.079651003E+000  0.000000000E+000  7.126380709E-005
     1  1.076225086E+000  6.117716093E-009  4.701588808E-005
     2  7.503126719E-001  2.020740771E-008  3.278456091E-005
     3  5.994648217E-001  3.824383301E-008  2.600435017E-005
     4  5.609035598E-001  5.895952907E-008  2.441369233E-005
     5  5.461653545E-001  7.062180579E-008  2.398785281E-005
     6  5.453589256E-001  7.724740755E-008  2.402137142E-005
     7  5.442387836E-001  8.035696703E-008  2.396381737E-005
    - ALMISE convergence    8.0316E-08

GPKDE histogram statistics 
   Max count         :   317.00000000689158     
   Max raw density   :   317.00000000689158     
   Min count         :   0.0000000000000000     
   Min raw density   :   0.0000000000000000     
   Mean raw density  :   189.83050847870112     


GPKDE data points statistics 
   Mean coordinates                 :   41.937258616903051        101.58266233253116       0.50000000000000000     
   Std. dev. coordinates            :   11.567126809630246        41.886156002016776        0.0000000000000000     
   Std. sigma scale                 :   22.011416993080729     
   Global smoothing scale Silverman :   2.3267425670912334     

 GPKDE compute density 
   initialSmoothing   :   2.3267425670912334        2.3267425670912334        0.0000000000000000     
 GPKDE Optimization -- Time: 3 -- Specie: 1
|-----------------------------------------------------------|
| Loop |  hHatOverLambda |     ALMISE      |      RMSE      |
|-----------------------------------------------------------|
     0  2.326742567E+000  0.000000000E+000  8.037502575E-005
     1  1.133029820E+000  5.062000034E-009  5.155886942E-005
     2  7.513695304E-001  1.823349703E-008  3.469218522E-005
     3  5.979236574E-001  3.975411676E-008  2.725089170E-005
     4  5.581195421E-001  6.834610935E-008  2.572689569E-005
     5  5.465329720E-001  8.684964566E-008  2.540287980E-005
     6  5.450916241E-001  9.723520794E-008  2.534180821E-005
     7  5.452765043E-001  1.046245819E-007  2.539460565E-005
     8  5.446318634E-001  1.081070323E-007  2.533863839E-005
    - Bandwidth convergence    9.3694E-03

GPKDE histogram statistics 
   Max count         :   313.00000000680456     
   Max raw density   :   313.00000000680456     
   Min count         :   0.0000000000000000     
   Min raw density   :   0.0000000000000000     
   Mean raw density  :   178.70855148730453     


GPKDE data points statistics 
   Mean coordinates                 :   45.619898861319840        101.92920204271852       0.50000000000000000     
   Std. dev. coordinates            :   13.825591969888357        41.874512115909411        0.0000000000000000     
   Std. sigma scale                 :   24.061170346695729     
   Global smoothing scale Silverman :   2.5434141417287606     

 GPKDE compute density 
   initialSmoothing   :   2.5434141417287606        2.5434141417287606        0.0000000000000000     
 GPKDE Optimization -- Time: 4 -- Specie: 1
|-----------------------------------------------------------|
| Loop |  hHatOverLambda |     ALMISE      |      RMSE      |
|-----------------------------------------------------------|
     0  2.543414142E+000  0.000000000E+000  8.559758322E-005
     1  1.167051862E+000  4.401812862E-009  5.352943844E-005
     2  7.376715445E-001  1.731444590E-008  3.462376628E-005
     3  5.937726166E-001  4.180995585E-008  2.752414859E-005
     4  5.583911134E-001  7.779644289E-008  2.607925877E-005
     5  5.475476470E-001  1.065927282E-007  2.580695630E-005
     6  5.470187711E-001  1.384501931E-007  2.588068391E-005
     7  5.468135917E-001  1.574860411E-007  2.589649691E-005
    - Bandwidth convergence    9.9601E-03

GPKDE histogram statistics 
   Max count         :   317.00000000689158     
   Max raw density   :   317.00000000689158     
   Min count         :   0.0000000000000000     
   Min raw density   :   0.0000000000000000     
   Mean raw density  :   169.77735670667363     


GPKDE data points statistics 
   Mean coordinates                 :   49.376392183681162        102.12460057963648       0.50000000000000000     
   Std. dev. coordinates            :   16.308180009827236        41.782210216500111        0.0000000000000000     
   Std. sigma scale                 :   26.103482630084560     
   Global smoothing scale Silverman :   2.7592991493385775     

 GPKDE compute density 
   initialSmoothing   :   2.7592991493385775        2.7592991493385775        0.0000000000000000     
 GPKDE Optimization -- Time: 5 -- Specie: 1
|-----------------------------------------------------------|
| Loop |  hHatOverLambda |     ALMISE      |      RMSE      |
|-----------------------------------------------------------|
     0  2.759299149E+000  0.000000000E+000  9.174269308E-005
     1  1.206802604E+000  3.803845141E-009  5.616043765E-005
     2  7.400948140E-001  1.572703785E-008  3.594827120E-005
     3  5.928920157E-001  4.007571362E-008  2.846494388E-005
     4  5.597822984E-001  7.372363687E-008  2.720413049E-005
     5  5.508071437E-001  1.072786554E-007  2.698561719E-005
     6  5.500434271E-001  1.421324712E-007  2.694624763E-005
     7  5.495570499E-001  1.706858929E-007  2.696683754E-005
     8  5.502560172E-001  1.928400733E-007  2.692417210E-005
    - Bandwidth convergence    9.9682E-03

GPKDE histogram statistics 
   Max count         :   317.00000000689158     
   Max raw density   :   317.00000000689158     
   Min count         :   0.0000000000000000     
   Min raw density   :   0.0000000000000000     
   Mean raw density  :   160.50156740160676     


GPKDE data points statistics 
   Mean coordinates                 :   53.213275812536253        101.91670730097238       0.50000000000000000     
   Std. dev. coordinates            :   18.842467458145247        41.837861265194334        0.0000000000000000     
   Std. sigma scale                 :   28.077188951314550     
   Global smoothing scale Silverman :   2.9679320835102598     

 GPKDE compute density 
   initialSmoothing   :   2.9679320835102598        2.9679320835102598        0.0000000000000000     
 GPKDE Optimization -- Time: 6 -- Specie: 1
|-----------------------------------------------------------|
| Loop |  hHatOverLambda |     ALMISE      |      RMSE      |
|-----------------------------------------------------------|
     0  2.967932084E+000  0.000000000E+000  9.521640842E-005
     1  1.248172398E+000  3.317961878E-009  5.866212124E-005
     2  7.328358261E-001  1.466284964E-008  3.516224986E-005
     3  5.877481858E-001  4.233219177E-008  2.784388603E-005
     4  5.576249069E-001  8.074068047E-008  2.674407537E-005
     5  5.513345589E-001  1.308099838E-007  2.658727252E-005
     6  5.493305773E-001  1.786317192E-007  2.657696289E-005
    - Bandwidth convergence    8.8916E-03

GPKDE histogram statistics 
   Max count         :   317.00000000689158     
   Max raw density   :   317.00000000689158     
   Min count         :   0.0000000000000000     
   Min raw density   :   0.0000000000000000     
   Mean raw density  :   152.70558159684140     


GPKDE data points statistics 
   Mean coordinates                 :   57.095237019801601        101.46147878082149       0.50000000000000000     
   Std. dev. coordinates            :   21.365458615468391        42.026506690771470        0.0000000000000000     
   Std. sigma scale                 :   29.965239686249522     
   Global smoothing scale Silverman :   3.1675106937915527     

 GPKDE compute density 
   initialSmoothing   :   3.1675106937915527        3.1675106937915527        0.0000000000000000     
 GPKDE Optimization -- Time: 7 -- Specie: 1
|-----------------------------------------------------------|
| Loop |  hHatOverLambda |     ALMISE      |      RMSE      |
|-----------------------------------------------------------|
     0  3.167510694E+000  0.000000000E+000  1.017876018E-004
     1  1.320641138E+000  2.740606372E-009  6.254023444E-005
     2  7.540714139E-001  1.253248231E-008  3.664476235E-005
     3  5.911196013E-001  3.944152845E-008  2.828097798E-005
     4  5.593620076E-001  7.579144627E-008  2.707044853E-005
     5  5.527987636E-001  1.095528099E-007  2.685950483E-005
    - Bandwidth convergence    9.9524E-03

GPKDE histogram statistics 
   Max count         :   330.00000000717432     
   Max raw density   :   330.00000000717432     
   Min count         :   0.0000000000000000     
   Min raw density   :   0.0000000000000000     
   Mean raw density  :   145.75030500520035     


GPKDE data points statistics 
   Mean coordinates                 :   61.008210411088669        101.04309026228863       0.50000000000000000     
   Std. dev. coordinates            :   23.715504825743409        42.257125508084066        0.0000000000000000     
   Std. sigma scale                 :   31.656738049094894     
   Global smoothing scale Silverman :   3.3463125057891463     

 GPKDE compute density 
   initialSmoothing   :   3.3463125057891463        3.3463125057891463        0.0000000000000000     
 GPKDE Optimization -- Time: 8 -- Specie: 1
|-----------------------------------------------------------|
| Loop |  hHatOverLambda |     ALMISE      |      RMSE      |
|-----------------------------------------------------------|
     0  3.346312506E+000  0.000000000E+000  1.063352265E-004
     1  1.355543414E+000  2.360853026E-009  6.380215998E-005
     2  7.552297501E-001  1.173464253E-008  3.659137549E-005
     3  5.909924012E-001  3.834898089E-008  2.814558926E-005
     4  5.593654208E-001  7.961545084E-008  2.702502457E-005
     5  5.532254910E-001  1.217980214E-007  2.679401206E-005
     6  5.511952540E-001  1.623235936E-007  2.674253561E-005
    - Bandwidth convergence    8.9308E-03

GPKDE histogram statistics 
   Max count         :   317.00000000689158     
   Max raw density   :   317.00000000689158     
   Min count         :   0.0000000000000000     
   Min raw density   :   0.0000000000000000     
   Mean raw density  :   139.02249806353234     


GPKDE data points statistics 
   Mean coordinates                 :   64.947539082774995        100.79314695562915       0.50000000000000000     
   Std. dev. coordinates            :   25.782043817565945        42.502090787643610        0.0000000000000000     
   Std. sigma scale                 :   33.102730507092517     
   Global smoothing scale Silverman :   3.4991628290906207     

 GPKDE compute density 
   initialSmoothing   :   3.4991628290906207        3.4991628290906207        0.0000000000000000     
 GPKDE Optimization -- Time: 9 -- Specie: 1
|-----------------------------------------------------------|
| Loop |  hHatOverLambda |     ALMISE      |      RMSE      |
|-----------------------------------------------------------|
     0  3.499162829E+000  0.000000000E+000  1.054029894E-004
     1  1.377340794E+000  2.127306948E-009  6.396320422E-005
     2  7.574372727E-001  1.102563939E-008  3.660821126E-005
     3  5.920467501E-001  3.791532739E-008  2.789874371E-005
     4  5.602587525E-001  7.982596942E-008  2.680782060E-005
     5  5.537974068E-001  1.489189828E-007  2.656826820E-005
     6  5.509997607E-001  2.982545830E-007  2.649893582E-005
     7  5.498088105E-001  4.498732139E-007  2.645816483E-005
    - Bandwidth convergence    9.7275E-03

GPKDE histogram statistics 
   Max count         :   327.00000000710912     
   Max raw density   :   327.00000000710912     
   Min count         :   0.0000000000000000     
   Min raw density   :   0.0000000000000000     
   Mean raw density  :   132.91303541916804     


GPKDE data points statistics 
   Mean coordinates                 :   69.025788292566062        100.67167671443657       0.50000000000000000     
   Std. dev. coordinates            :   27.842574205761281        42.763012460336412        0.0000000000000000     
   Std. sigma scale                 :   34.505540825913897     
   Global smoothing scale Silverman :   3.6474485338856621     

 GPKDE compute density 
   initialSmoothing   :   3.6474485338856621        3.6474485338856621        0.0000000000000000     
 GPKDE Optimization -- Time: 10 -- Specie: 1
|-----------------------------------------------------------|
| Loop |  hHatOverLambda |     ALMISE      |      RMSE      |
|-----------------------------------------------------------|
     0  3.647448534E+000  0.000000000E+000  1.075576255E-004
     1  1.360451961E+000  1.995469883E-009  6.344218858E-005
     2  7.582674198E-001  1.057589543E-008  3.656318646E-005
     3  5.925583089E-001  3.877053072E-008  2.803803858E-005
     4  5.615384705E-001  8.206424975E-008  2.699448134E-005
     5  5.553693283E-001  1.346683490E-007  2.680592659E-005
     6  5.534661535E-001  1.965994164E-007  2.678094296E-005
     7  5.521477996E-001  2.644763811E-007  2.675628041E-005
    - Bandwidth convergence    9.6121E-03

GPKDE histogram statistics 
   Max count         :   315.00000000684810     
   Max raw density   :   315.00000000684810     
   Min count         :   0.0000000000000000     
   Min raw density   :   0.0000000000000000     
   Mean raw density  :   127.11473665819706     


GPKDE data points statistics 
   Mean coordinates                 :   73.181045300062294        100.61497051766294       0.50000000000000000     
   Std. dev. coordinates            :   29.891392075526678        43.040818842927571        0.0000000000000000     
   Std. sigma scale                 :   35.868509744421559     
   Global smoothing scale Silverman :   3.7915227568814358     

 GPKDE compute density 
   initialSmoothing   :   3.7915227568814358        3.7915227568814358        0.0000000000000000     
 GPKDE Optimization -- Time: 11 -- Specie: 1
|-----------------------------------------------------------|
| Loop |  hHatOverLambda |     ALMISE      |      RMSE      |
|-----------------------------------------------------------|
     0  3.791522757E+000  0.000000000E+000  1.055927705E-004
     1  1.384880720E+000  1.744879585E-009  6.349371877E-005
     2  7.666850041E-001  9.645926747E-009  3.628499269E-005
     3  5.991882319E-001  3.924306436E-008  2.774156309E-005
     4  5.672548156E-001  9.283915472E-008  2.677819870E-005
     5  5.607740362E-001  1.647395657E-007  2.662190464E-005
     6  5.591470327E-001  2.419317307E-007  2.656974946E-005
     7  5.583937737E-001  3.431135037E-007  2.654546440E-005
     8  5.583629255E-001  4.912879138E-007  2.656631216E-005
     9  5.590899402E-001  5.209911255E-007  2.656752155E-005
    - ALMISE convergence    5.1952E-07

GPKDE histogram statistics 
   Max count         :   321.00000000697861     
   Max raw density   :   321.00000000697861     
   Min count         :   0.0000000000000000     
   Min raw density   :   0.0000000000000000     
   Mean raw density  :   121.82188987348253     


GPKDE data points statistics 
   Mean coordinates                 :   77.322221721755355        100.66151624931651       0.50000000000000000     
   Std. dev. coordinates            :   31.878812580533211        43.282026036103133        0.0000000000000000     
   Std. sigma scale                 :   37.145384586926689     
   Global smoothing scale Silverman :   3.9264963049196435     

 GPKDE compute density 
   initialSmoothing   :   3.9264963049196435        3.9264963049196435        0.0000000000000000     
 GPKDE Optimization -- Time: 12 -- Specie: 1
|-----------------------------------------------------------|
| Loop |  hHatOverLambda |     ALMISE      |      RMSE      |
|-----------------------------------------------------------|
     0  3.926496305E+000  0.000000000E+000  1.018516894E-004
     1  1.368023977E+000  1.686768443E-009  6.038861781E-005
     2  7.623907330E-001  9.458746723E-009  3.434585612E-005
     3  6.005051036E-001  3.834891101E-008  2.647851691E-005
     4  5.682633362E-001  9.588407079E-008  2.549030900E-005
     5  5.621747266E-001  1.827671043E-007  2.536334033E-005
     6  5.600110396E-001  3.878692612E-007  2.533286809E-005
     7  5.597799227E-001  5.895741272E-007  2.531965504E-005
     8  5.602877811E-001  6.648151293E-007  2.530099308E-005
     9  5.597049774E-001  7.459338771E-007  2.530835217E-005
    10  5.604967178E-001  9.823858892E-007  2.531175859E-005
    11  5.604991700E-001  1.055656241E-006  2.531193236E-005
    - Bandwidth convergence    8.5290E-03

GPKDE histogram statistics 
   Max count         :   319.00000000693507     
   Max raw density   :   319.00000000693507     
   Min count         :   0.0000000000000000     
   Min raw density   :   0.0000000000000000     
   Mean raw density  :   116.66666666920069     


GPKDE data points statistics 
   Mean coordinates                 :   81.423810062540255        100.73949639626099       0.50000000000000000     
   Std. dev. coordinates            :   33.866271182770291        43.561804241029606        0.0000000000000000     
   Std. sigma scale                 :   38.409320166301583     
   Global smoothing scale Silverman :   4.0601020930212064     

 GPKDE compute density 
   initialSmoothing   :   4.0601020930212064        4.0601020930212064        0.0000000000000000     
 GPKDE Optimization -- Time: 13 -- Specie: 1
|-----------------------------------------------------------|
| Loop |  hHatOverLambda |     ALMISE      |      RMSE      |
|-----------------------------------------------------------|
     0  4.060102093E+000  0.000000000E+000  1.034045586E-004
     1  1.362181826E+000  1.552676116E-009  5.856900395E-005
     2  7.628401901E-001  9.235556799E-009  3.342282379E-005
     3  6.034428607E-001  3.805130584E-008  2.583576333E-005
     4  5.736082979E-001  8.112903892E-008  2.492370364E-005
     5  5.667231822E-001  1.394840438E-007  2.475771478E-005
     6  5.653381324E-001  2.065560963E-007  2.475697980E-005
     7  5.655959384E-001  2.877457848E-007  2.471268368E-005
     8  5.644647254E-001  3.790759995E-007  2.469460066E-005