
MODPATH-RW Version 0.0.1               
Program compiled Mar 28 2023 10:15:59 with GFORTRAN compiler (ver. 12.1.0)                

This program has been developed and published by the Hydrogeology
Group (GHS), Universitat Politècnica de Catalunya (UPC). It is free
to use and modify under the condition that neither the GHS nor UPC
shall be considered legally responsible for any wrongdoing or damages
derived from its use. The code is an extension of software originally
released by the U.S. Geological Survey (USGS), without endorsement
from this institution, explicit or implied. Their release conditions
also apply (see disclaimer below).

This software has been approved for release by the U.S. Geological
Survey (USGS). Although the software has been subjected to rigorous
review, the USGS reserves the right to update the software as needed
pursuant to further analysis and review. No warranty, expressed or
implied, is made by the USGS or the U.S. Government as to the
functionality of the software and related material nor shall the
fact of release constitute any such warranty. Furthermore, the
software is released on condition that neither the USGS nor the U.S.
Government shall be held liable for any damages resulting from its
authorized or unauthorized use. Also refer to the USGS Water
Resources Software User Rights Notice for complete use, copyright,
and distribution information.


MODPATH-RW name file data
-------------------------
   MPBAS File: mpathrw.mpbas
  GRBDIS File: mf6_model.dis.grb
    TDIS File: mf6_sim.tdis
    HEAD File: mf6_model_steady.hds
  BUDGET File: mf6_model_steady.bud
     DSP File: mpathrw.dsp
  RWOPTS File: mpathrw.rwopts
      IC File: mpathrw.ic.npx4
   GPKDE File: mpathrw.gpkde

Grid data
---------
Grid file type: MODFLOW-6 DIS binary grid file.
Time discretization file type: MODFLOW-6 time discretization file.
 # File generated by Flopy version 3.3.6 on 03/28/2023 at 09:17:49.

 Time discretization file data
 -----------------------------
 Stress period count =          1
 Period length:      100.00000 Time step count:         1 Time step multiplier:        1.00000

 The budget file was opened successfully.

 MODPATH basic data file data
 ----------------------------
 # # MPBAS package for MODPATH 7 generated by Flopy 3.3.6
 Aquifer head is set to  1.00000E+30 at cells with IDOMAIN = 0.
 Aquifer head is set to -1.00000E+30 at all dry cells when Newton-Raphson rewetting is not active.


                 POROSITY =  0.350000     FOR LAYER   1

 MODPATH-RW simulation file data
 -------------------------------
 # MPSIM package for MODPATH 7 generated by Flopy 3.3.6
RWPT with Timeseries Analysis (Simulation type = 5)
Forward tracking (Tracking direction =  1)
Stop particles when they enter weak sink cells. (Weak sink option = 2)
Let particles pass through weak source cells for backtracking simulations (Weak source option = 1)
No timeseries output, skip TimeseriesWriter (Timeseries output option = 2)
Particle groups with default mass and soluteid (ParticlesMassOption = 0)
Solutes with the same dispersion (SolutesOption= 0)
Reference time =   0.0000000E+00
Specify a limit for tracking time (Stoping time option =  3)
Stop time =   0.1501000E+03
The zone value for all cells = 1

The retardation factor for all cells = 1

Number of particle groups =     0

The simulation will be run with stoptime =   0.1501000E+03

 MODPATH-RW GPKDE file data
 --------------------------
GPKDE reconstruction is enabled
GPKDE reconstruction with kernel database
GPKDE output is requested to be expressed as resident concentration.
Porosity and retardation are spatially uniform, GPKDE output is given as concentration.

 MODPATH-RW OBS file data
 --------------------------
No observations were specified

 MODPATH-RW RWOPTS file data
 ---------------------------
RW time step will be selected with the MIN_ADV_DISP criteria.
RW advection integration is EULERIAN.
Random displacements for 2 dimensions.
Random displacements for X dimension.
Random displacements for Y dimension.

 MODPATH-RW IC file data
 -----------------------
Given number of initial conditions =     1
Processing initial condition:     1



                       IC           FOR LAYER   1
 READING ON UNIT  123 WITH FORMAT: (1000E15.6)         
Original particle mass for initial condition =   9.000000000E-003
Effective particle mass for initial condition =   7.142857143E-003
Retardation factor is unitary so total dissolved mass is the total mass.
Total accumulated mass for initial condition =   9.800000000E+002
Total number of particles for this initial condition =     137200
Total number of particles on initial conditions =     137200


 MODPATH-RW SRC file data
 ------------------------
SRC package was not specified in name file.

 Budget File Data
 ----------------
    Budget file type:  Unstructured grid
  Budget file format:  Compact
    Budget precision:  Double

 MODPATH-RW IMP file data
 ------------------------
IMP package was not specified in name file.

 MODPATH-RW SPC file data
 ------------------------
SPC package was not specified in name file.
ParticlesMassOption.ne.2. Will create a single solute and leave.

 MODPATH-RW DSP file data
 ------------------------
Given number of dispersion parameters/models =     1
Simulation is single dispersion, will read only first dispersion data.
Processing dispersion data:     1
Dispersion model is linear, isotropic: will read dmeff and dispersivities

           DMEFF          =   0.00000     FOR LAYER   1

          ALPHAL          =  2.000000E-02 FOR LAYER   1

         ALPHATH          =  2.000000E-03 FOR LAYER   1

 TransportModelData: verify SPC-DSP relations 
 ---------------------------------------------
Simulation is single dispersion. Is consistent.

------------------------------
 GPKDE module is initializing 
 GPKDE initializing Histogram 
   Histogram determines dimensions to be analyzed based on binSizes 
   Will compute Histogram considering            2  dimensions 
   binSize            :   1.0000000000000000        1.0000000000000000        0.0000000000000000     
   domainSize         :   1000.0000000000000        200.00000000000000        0.0000000000000000     
   domainOrigin       :   0.0000000000000000        0.0000000000000000        0.0000000000000000     
   Computed nBins     :        1000         200           1
   Dimensionality for reconstruction is determined from nBins 
   Will perform reconstruction in            2  dimensions.
 Initializing kernels database with parameters: 
  minHOverLambda         :  0.25000000000000000     
  maxHOverLambda         :   15.000000000000000     
  deltaHOverLambda       :   9.5217315400513772E-002
 Database is for kernels 2D 
 GPKDE module is initialized  
------------------------------



 Run particle tracking simulation ...

 ----------------------------------------------------------------------------------------------
 Processing Time Step     1 Period     1.  Time =  1.00000E+02  Steady-state flow                                                    
   (Cumulative step =      1)
 ----------------------------------------------------------------------------------------------

GPKDE histogram statistics 
   Max count         :   49.000000000123862     
   Max raw density   :   49.000000000123862     
   Min count         :   0.0000000000000000     
   Min raw density   :   0.0000000000000000     
   Mean raw density  :   49.000000000126839     


GPKDE data points statistics 
   Mean coordinates                 :   30.000000000000000        100.00000000000000       0.50000000000000000     
   Std. dev. coordinates            :   5.7733554067855870        40.414497802806906        0.0000000000000000     
   Std. sigma scale                 :   15.275053499165216     
   Global smoothing scale Silverman :   2.1269488934568184     

 GPKDE compute density 
   initialSmoothing   :   2.1269488934568184        2.1269488934568184        0.0000000000000000     
 GPKDE Optimization -- Time: 0 -- Specie: 1
|-----------------------------------------------------------|
| Loop |  hHatOverLambda |     ALMISE      |      RMSE      |
|-----------------------------------------------------------|
     0  2.126948893E+000  0.000000000E+000  5.871796324E-005
     1  1.467227452E+000  7.050249839E-010  4.529507843E-005
     2  1.208893426E+000  1.742569086E-009  3.544323685E-005
     3  9.710810235E-001  2.831322979E-009  2.872708201E-005
     4  8.374220825E-001  4.687115207E-009  2.026810037E-005
     5  8.091822783E-001  8.121040435E-009  1.986546683E-005
     6  8.087538431E-001  1.241706759E-008  1.941944557E-005
     7  8.056559658E-001  1.838587764E-008  2.914398364E-005
     8  6.789506774E-001  1.300726822E-008  2.117443575E-005
     9  7.463468299E-001  1.318071338E-008  1.976335696E-005
    10  7.892926104E-001  1.872883656E-008  1.923410709E-005
    11  8.015809310E-001  2.422095357E-008  2.558712541E-005
    12  7.026345208E-001  1.911936616E-008  2.052974945E-005
    - ALMISE convergence    1.8951E-08

GPKDE histogram statistics 
   Max count         :   67.000000000169351     
   Max raw density   :   67.000000000169351     
   Min count         :   0.0000000000000000     
   Min raw density   :   0.0000000000000000     
   Mean raw density  :   42.915233031075111     


GPKDE data points statistics 
   Mean coordinates                 :   34.165896454985848        100.50539702970998       0.50000000000000000     
   Std. dev. coordinates            :   7.1535085907674523        41.026794550486912        0.0000000000000000     
   Std. sigma scale                 :   17.131419301054990     
   Global smoothing scale Silverman :   2.3854353981617820     

 GPKDE compute density 
   initialSmoothing   :   2.3854353981617820        2.3854353981617820        0.0000000000000000     
 GPKDE Optimization -- Time: 1 -- Specie: 1
|-----------------------------------------------------------|
| Loop |  hHatOverLambda |     ALMISE      |      RMSE      |
|-----------------------------------------------------------|
     0  2.385435398E+000  0.000000000E+000  7.210207438E-005
     1  1.510332019E+000  6.266767630E-010  5.903478168E-005
     2  1.190628167E+000  1.581713710E-009  5.080956415E-005
     3  9.830221729E-001  2.408820378E-009  4.565807496E-005
     4  8.719958624E-001  3.410571263E-009  4.183456763E-005
     5  7.953956235E-001  4.423506833E-009  3.920408519E-005
     6  7.583234788E-001  5.164144695E-009  3.745476866E-005
     7  7.320261787E-001  5.552068380E-009  3.615046078E-005
     8  7.201115682E-001  5.838253413E-009  3.551856744E-005
     9  7.100072043E-001  6.072004234E-009  3.511612780E-005
    - ALMISE convergence    6.1294E-09

GPKDE histogram statistics 
   Max count         :   74.000000000187043     
   Max raw density   :   74.000000000187043     
   Min count         :   0.0000000000000000     
   Min raw density   :   0.0000000000000000     
   Mean raw density  :   40.222808560641170     


GPKDE data points statistics 
   Mean coordinates                 :   38.107546705174741        101.07553535167602       0.50000000000000000     
   Std. dev. coordinates            :   9.3065613890764478        41.613176630338621        0.0000000000000000     
   Std. sigma scale                 :   19.679318659565624     
   Global smoothing scale Silverman :   2.7402133190063598     

 GPKDE compute density 
   initialSmoothing   :   2.7402133190063598        2.7402133190063598        0.0000000000000000     
 GPKDE Optimization -- Time: 2 -- Specie: 1
|-----------------------------------------------------------|
| Loop |  hHatOverLambda |     ALMISE      |      RMSE      |
|-----------------------------------------------------------|
     0  2.740213319E+000  0.000000000E+000  8.794871005E-005
     1  1.574201926E+000  5.301332356E-010  6.744584055E-005
     2  1.171202005E+000  1.462254185E-009  5.650900749E-005
     3  9.542372223E-001  2.381777779E-009  4.916630126E-005
     4  8.371143522E-001  3.536290506E-009  4.421125318E-005
     5  7.598267655E-001  4.843768099E-009  4.102376761E-005
     6  7.193524051E-001  5.856921525E-009  3.964481208E-005
     7  6.947140351E-001  6.453360386E-009  3.848132081E-005
     8  6.853890712E-001  6.809558537E-009  3.817209981E-005
     9  6.774906284E-001  7.052176501E-009  3.775065083E-005
    - ALMISE convergence    7.0928E-09

GPKDE histogram statistics 
   Max count         :   74.000000000187043     
   Max raw density   :   74.000000000187043     
   Min count         :   0.0000000000000000     
   Min raw density   :   0.0000000000000000     
   Mean raw density  :   38.195991091410662     


GPKDE data points statistics 
   Mean coordinates                 :   41.939261597243934        101.58196832689437       0.50000000000000000     
   Std. dev. coordinates            :   11.569518922249912        41.885680437972894        0.0000000000000000     
   Std. sigma scale                 :   22.013567916138456     
   Global smoothing scale Silverman :   3.0652418941004709     

 GPKDE compute density 
   initialSmoothing   :   3.0652418941004709        3.0652418941004709        0.0000000000000000     
 GPKDE Optimization -- Time: 3 -- Specie: 1
|-----------------------------------------------------------|
| Loop |  hHatOverLambda |     ALMISE      |      RMSE      |
|-----------------------------------------------------------|
     0  3.065241894E+000  0.000000000E+000  9.733290557E-005
     1  1.672051510E+000  4.330118643E-010  7.429524847E-005
     2  1.181973080E+000  1.284738490E-009  6.058238783E-005
     3  9.417843032E-001  2.293196084E-009  5.152894044E-005
     4  8.134704037E-001  3.705831451E-009  4.597966322E-005
     5  7.401378325E-001  5.455607286E-009  4.303331462E-005
     6  7.063062317E-001  6.760077984E-009  4.151471972E-005
     7  6.841114912E-001  7.564044148E-009  4.043630794E-005
     8  6.718355861E-001  7.918049598E-009  3.993854227E-005
     9  6.643757665E-001  8.120227638E-009  3.952352013E-005
    10  6.606703864E-001  8.295981465E-009  3.935966484E-005
    - ALMISE convergence    8.3397E-09

GPKDE histogram statistics 
   Max count         :   74.000000000187043     
   Max raw density   :   74.000000000187043     
   Min count         :   0.0000000000000000     
   Min raw density   :   0.0000000000000000     
   Mean raw density  :   36.286696641191973     


GPKDE data points statistics 
   Mean coordinates                 :   45.621536658616662        101.93116338845157       0.50000000000000000     
   Std. dev. coordinates            :   13.826803516013410        41.874082957447143        0.0000000000000000     
   Std. sigma scale                 :   24.062101268714404     
   Global smoothing scale Silverman :   3.3504864431757926     

 GPKDE compute density 
   initialSmoothing   :   3.3504864431757926        3.3504864431757926        0.0000000000000000     
 GPKDE Optimization -- Time: 4 -- Specie: 1
|-----------------------------------------------------------|
| Loop |  hHatOverLambda |     ALMISE      |      RMSE      |
|-----------------------------------------------------------|
     0  3.350486443E+000  0.000000000E+000  1.035197290E-004
     1  1.733403372E+000  3.708251488E-010  7.593491219E-005
     2  1.164469612E+000  1.202387962E-009  5.980072147E-005
     3  9.141188486E-001  2.309803807E-009  5.021326921E-005
     4  7.894925340E-001  3.950230959E-009  4.479562104E-005
     5  7.249063035E-001  6.002197093E-009  4.188991168E-005
     6  6.898626319E-001  7.735385213E-009  4.009158270E-005
     7  6.711117863E-001  8.904927668E-009  3.927352848E-005
     8  6.626946457E-001  9.552314178E-009  3.888026979E-005
     9  6.577353045E-001  9.933648501E-009  3.867997603E-005
    - ALMISE convergence    9.9857E-09

GPKDE histogram statistics 
   Max count         :   74.000000000187043     
   Max raw density   :   74.000000000187043     
   Min count         :   0.0000000000000000     
   Min raw density   :   0.0000000000000000     
   Mean raw density  :   34.778200253573246     


GPKDE data points statistics 
   Mean coordinates                 :   49.375366102952867        102.12670134702920       0.50000000000000000     
   Std. dev. coordinates            :   16.310704138245228        41.782813068805140        0.0000000000000000     
   Std. sigma scale                 :   26.105690989301294     
   Global smoothing scale Silverman :   3.6350426246071414     

 GPKDE compute density 
   initialSmoothing   :   3.6350426246071414        3.6350426246071414        0.0000000000000000     
 GPKDE Optimization -- Time: 5 -- Specie: 1
|-----------------------------------------------------------|
| Loop |  hHatOverLambda |     ALMISE      |      RMSE      |
|-----------------------------------------------------------|
     0  3.635042625E+000  0.000000000E+000  1.112123418E-004
     1  1.786721420E+000  3.144272897E-010  7.857739349E-005
     2  1.167289229E+000  1.084980527E-009  6.162828315E-005
     3  8.941116787E-001  2.266642491E-009  5.111311362E-005
     4  7.679190994E-001  4.078369339E-009  4.570262363E-005
     5  7.084230509E-001  6.225371417E-009  4.294177210E-005
     6  6.787377602E-001  8.020956083E-009  4.130794106E-005
     7  6.634626230E-001  9.440902339E-009  4.070361650E-005
     8  6.572197696E-001  1.049959632E-008  4.033274860E-005
     9  6.525585376E-001  1.123610406E-008  4.006763836E-005
    10  6.513586448E-001  1.180777998E-008  3.997895614E-005
    11  6.483463752E-001  1.208197450E-008  3.983417675E-005
    12  6.492930147E-001  1.195195435E-008  3.998847150E-005
    13  6.484557113E-001  1.208771369E-008  3.984455334E-005
    - ALMISE convergence    1.2043E-08

GPKDE histogram statistics 
   Max count         :   75.000000000189573     
   Max raw density   :   75.000000000189573     
   Min count         :   0.0000000000000000     
   Min raw density   :   0.0000000000000000     
   Mean raw density  :   33.252544837699247     


GPKDE data points statistics 
   Mean coordinates                 :   53.216304967165485        101.91631569136642       0.50000000000000000     
   Std. dev. coordinates            :   18.851973736488869        41.838732219687934        0.0000000000000000     
   Std. sigma scale                 :   28.084563036898892     
   Global smoothing scale Silverman :   3.9105873035282568     

 GPKDE compute density 
   initialSmoothing   :   3.9105873035282568        3.9105873035282568        0.0000000000000000     
 GPKDE Optimization -- Time: 6 -- Specie: 1
|-----------------------------------------------------------|
| Loop |  hHatOverLambda |     ALMISE      |      RMSE      |
|-----------------------------------------------------------|
     0  3.910587304E+000  0.000000000E+000  1.143026502E-004
     1  1.796429640E+000  2.742461599E-010  8.080857980E-005
     2  1.146556839E+000  1.041211872E-009  6.054202740E-005
     3  8.645770911E-001  2.339886771E-009  4.914346263E-005
     4  7.363987697E-001  4.782349870E-009  4.332255791E-005
     5  6.846667932E-001  8.355387159E-009  4.104871998E-005
     6  6.635316060E-001  1.274312902E-008  3.992416510E-005
     7  6.529153281E-001  1.719932223E-008  3.949102684E-005
     8  6.492697511E-001  2.263924009E-008  3.928676550E-005
     9  6.461284614E-001  2.558469349E-008  3.922997849E-005
    10  6.458967499E-001  2.524694404E-008  3.914124058E-005
    - ALMISE convergence    2.5378E-08

GPKDE histogram statistics 
   Max count         :   74.000000000187043     
   Max raw density   :   74.000000000187043     
   Min count         :   0.0000000000000000     
   Min raw density   :   0.0000000000000000     
   Mean raw density  :   31.766612641895492     


GPKDE data points statistics 
   Mean coordinates                 :   57.094135565066466        101.45933208756895       0.50000000000000000     
   Std. dev. coordinates            :   21.372248699686413        42.026558994614952        0.0000000000000000     
   Std. sigma scale                 :   29.970019533276144     
   Global smoothing scale Silverman :   4.1731244926025690     

 GPKDE compute density 
   initialSmoothing   :   4.1731244926025690        4.1731244926025690        0.0000000000000000     
 GPKDE Optimization -- Time: 7 -- Specie: 1
|-----------------------------------------------------------|
| Loop |  hHatOverLambda |     ALMISE      |      RMSE      |
|-----------------------------------------------------------|
     0  4.173124493E+000  0.000000000E+000  1.213399167E-004
     1  1.787073317E+000  2.374917991E-010  8.238044975E-005
     2  1.129143518E+000  1.019489407E-009  6.045633433E-005
     3  8.367010012E-001  2.397113373E-009  4.777223687E-005
     4  7.162548276E-001  4.737198532E-009  4.208350272E-005
     5  6.712402936E-001  6.906171825E-009  3.997807998E-005
     6  6.548335103E-001  8.860988349E-009  3.917720117E-005
     7  6.469504687E-001  1.061843968E-008  3.882712284E-005
     8  6.441967180E-001  1.148014357E-008  3.877564195E-005
     9  6.433077531E-001  1.179234109E-008  3.870259908E-005
    10  6.424875713E-001  1.224984631E-008  3.867938674E-005
    - ALMISE convergence    1.2227E-08

GPKDE histogram statistics 
   Max count         :   74.000000000187043     
   Max raw density   :   74.000000000187043     
   Min count         :   0.0000000000000000     
   Min raw density   :   0.0000000000000000     
   Mean raw density  :   30.502445531424414     


GPKDE data points statistics 
   Mean coordinates                 :   61.005406861156494        101.03966723083231       0.50000000000000000     
   Std. dev. coordinates            :   23.722789377291534        42.256591257094549        0.0000000000000000     
   Std. sigma scale                 :   31.661399435185313     
   Global smoothing scale Silverman :   4.4086378157459158     

 GPKDE compute density 
   initialSmoothing   :   4.4086378157459158        4.4086378157459158        0.0000000000000000     
 GPKDE Optimization -- Time: 8 -- Specie: 1
|-----------------------------------------------------------|
| Loop |  hHatOverLambda |     ALMISE      |      RMSE      |
|-----------------------------------------------------------|
     0  4.408637816E+000  0.000000000E+000  1.268221607E-004
     1  1.765297608E+000  2.066319680E-010  8.245118707E-005
     2  1.113692083E+000  1.020130481E-009  6.024764308E-005
     3  8.162234241E-001  2.390037175E-009  4.713044523E-005
     4  7.061533015E-001  4.812283174E-009  4.196279485E-005
     5  6.670365592E-001  6.938824813E-009  4.009222169E-005
     6  6.528953310E-001  8.738234167E-009  3.932493991E-005
     7  6.461847058E-001  9.751382815E-009  3.894474818E-005
     8  6.443351730E-001  1.066133859E-008  3.883634994E-005
     9  6.423340509E-001  1.112045603E-008  3.875402581E-005
    10  6.409169331E-001  1.144459755E-008  3.869515494E-005
    - ALMISE convergence    1.1481E-08

GPKDE histogram statistics 
   Max count         :   72.000000000181984     
   Max raw density   :   72.000000000181984     
   Min count         :   0.0000000000000000     
   Min raw density   :   0.0000000000000000     
   Mean raw density  :   29.266211604169371     


GPKDE data points statistics 
   Mean coordinates                 :   64.943732658749482        100.78879452695193       0.50000000000000000     
   Std. dev. coordinates            :   25.786361923064302        42.497240844539789        0.0000000000000000     
   Std. sigma scale                 :   33.103613596538580     
   Global smoothing scale Silverman :   4.6094564783310075     

 GPKDE compute density 
   initialSmoothing   :   4.6094564783310075        4.6094564783310075        0.0000000000000000     
 GPKDE Optimization -- Time: 9 -- Specie: 1
|-----------------------------------------------------------|
| Loop |  hHatOverLambda |     ALMISE      |      RMSE      |
|-----------------------------------------------------------|
     0  4.609456478E+000  0.000000000E+000  1.256428600E-004
     1  1.763717925E+000  1.940273187E-010  8.206358171E-005
     2  1.110375144E+000  9.875207368E-010  6.048502469E-005
     3  8.149322122E-001  2.353800462E-009  4.730654369E-005
     4  7.054548060E-001  4.714539973E-009  4.203777660E-005
     5  6.649424555E-001  7.210852415E-009  4.010407307E-005
     6  6.510923388E-001  1.160963540E-008  3.935134749E-005
    - ALMISE convergence    1.1650E-08

GPKDE histogram statistics 
   Max count         :   78.000000000197147     
   Max raw density   :   78.000000000197147     
   Min count         :   0.0000000000000000     
   Min raw density   :   0.0000000000000000     
   Mean raw density  :   28.103236378604432     


GPKDE data points statistics 
   Mean coordinates                 :   69.023763886489377        100.67072487919221       0.50000000000000000     
   Std. dev. coordinates            :   27.845966643518896        42.758250263283628        0.0000000000000000     
   Std. sigma scale                 :   34.505721417855170     
   Global smoothing scale Silverman :   4.8046906016824869     

 GPKDE compute density 
   initialSmoothing   :   4.8046906016824869        4.8046906016824869        0.0000000000000000     
 GPKDE Optimization -- Time: 10 -- Specie: 1
|-----------------------------------------------------------|
| Loop |  hHatOverLambda |     ALMISE      |      RMSE      |
|-----------------------------------------------------------|
     0  4.804690602E+000  0.000000000E+000  1.277217155E-004
     1  1.700126065E+000  1.830067785E-010  8.004448337E-005
     2  1.090783021E+000  1.010730825E-009  5.937142334E-005
     3  8.073675992E-001  2.405416805E-009  4.665395657E-005
     4  7.018369341E-001  4.954640445E-009  4.140103703E-005
     5  6.621331315E-001  7.506550941E-009  3.957550741E-005
     6  6.488243057E-001  1.071419881E-008  3.894576281E-005
     7  6.418591030E-001  1.364215995E-008  3.862264953E-005
     8  6.397631412E-001  1.788288010E-008  3.842541314E-005
     9  6.383034107E-001  1.896311651E-008  3.835310502E-005
    - ALMISE convergence    1.8797E-08

GPKDE histogram statistics 
   Max count         :   77.000000000194618     
   Max raw density   :   77.000000000194618     
   Min count         :   0.0000000000000000     
   Min raw density   :   0.0000000000000000     
   Mean raw density  :   26.976012583630887     


GPKDE data points statistics 
   Mean coordinates                 :   73.178657769025733        100.61117854503037       0.50000000000000000     
   Std. dev. coordinates            :   29.893472344325122        43.038159033223032        0.0000000000000000     
   Std. sigma scale                 :   35.868649497999215     
   Global smoothing scale Silverman :   4.9944692084861897     

 GPKDE compute density 
   initialSmoothing   :   4.9944692084861897        4.9944692084861897        0.0000000000000000     
 GPKDE Optimization -- Time: 11 -- Specie: 1
|-----------------------------------------------------------|
| Loop |  hHatOverLambda |     ALMISE      |      RMSE      |
|-----------------------------------------------------------|
     0  4.994469208E+000  0.000000000E+000  1.255251820E-004
     1  1.692746894E+000  1.747403889E-010  7.903265248E-005
     2  1.091106089E+000  9.730408936E-010  5.853397021E-005
     3  8.083811556E-001  2.354486181E-009  4.552050686E-005
     4  7.058799519E-001  5.345826976E-009  4.063057830E-005
     5  6.691914180E-001  8.603002790E-009  3.899103279E-005
     6  6.561816375E-001  1.271309887E-008  3.842649995E-005
     7  6.507599852E-001  1.627412806E-008  3.819391201E-005
     8  6.474666996E-001  1.761569026E-008  3.804339593E-005
     9  6.456703935E-001  1.793281561E-008  3.798589080E-005
    10  6.443031344E-001  1.732509582E-008  3.794307774E-005
    - ALMISE convergence    1.7427E-08

GPKDE histogram statistics 
   Max count         :   78.000000000197147     
   Max raw density   :   78.000000000197147     
   Min count         :   0.0000000000000000     
   Min raw density   :   0.0000000000000000     
   Mean raw density  :   26.073736222034611     


GPKDE data points statistics 
   Mean coordinates                 :   77.317315497156486        100.65786548996313       0.50000000000000000     
   Std. dev. coordinates            :   31.885638916190086        43.277908342041286        0.0000000000000000     
   Std. sigma scale                 :   37.147594248380329     
   Global smoothing scale Silverman :   5.1725536991077243     

 GPKDE compute density 
   initialSmoothing   :   5.1725536991077243        5.1725536991077243        0.0000000000000000     
 GPKDE Optimization -- Time: 12 -- Specie: 1
|-----------------------------------------------------------|
| Loop |  hHatOverLambda |     ALMISE      |      RMSE      |
|-----------------------------------------------------------|
     0  5.172553699E+000  0.000000000E+000  1.219279683E-004
     1  1.673215995E+000  1.703948222E-010  7.630365062E-005
     2  1.083073211E+000  9.630145238E-010  5.633096593E-005
     3  8.065656419E-001  2.282802235E-009  4.404605993E-005
     4  7.082948542E-001  5.179553156E-009  3.950770942E-005
     5  6.722381385E-001  9.003335598E-009  3.782232075E-005
     6  6.598731994E-001  1.458376811E-008  3.726028047E-005
     7  6.537339858E-001  1.997543341E-008  3.700142905E-005
     8  6.526348066E-001  2.831347533E-008  3.692705605E-005
     9  6.508607115E-001  2.932749332E-008  3.688393524E-005
    10  6.508170284E-001  3.043998119E-008  3.684481473E-005
    11  6.498155217E-001  2.988900295E-008  3.683035761E-005
    12  6.504044965E-001  3.051075763E-008  3.680381643E-005
    13  6.494637038E-001  2.996421949E-008  3.683162186E-005
    14  6.504902588E-001  3.056509180E-008  3.682181790E-005
    15  6.498175580E-001  2.999464330E-008  3.682155282E-005
    16  6.495136692E-001  3.055698200E-008  3.677276918E-005
    17  6.498843780E-001  3.002230509E-008  3.679411114E-005
    18  6.504973836E-001  3.054940553E-008  3.679720342E-005