
MODPATH-RW Version 0.0.1               
Program compiled Mar 30 2023 10:07:59 with GFORTRAN compiler (ver. 12.1.0)                

This program has been developed and published by the Hydrogeology
Group (GHS), Universitat Politècnica de Catalunya (UPC). It is free
to use and modify under the condition that neither the GHS nor UPC
shall be considered legally responsible for any wrongdoing or damages
derived from its use. The code is an extension of software originally
released by the U.S. Geological Survey (USGS), without endorsement
from this institution, explicit or implied. Their release conditions
also apply (see disclaimer below).

This software has been approved for release by the U.S. Geological
Survey (USGS). Although the software has been subjected to rigorous
review, the USGS reserves the right to update the software as needed
pursuant to further analysis and review. No warranty, expressed or
implied, is made by the USGS or the U.S. Government as to the
functionality of the software and related material nor shall the
fact of release constitute any such warranty. Furthermore, the
software is released on condition that neither the USGS nor the U.S.
Government shall be held liable for any damages resulting from its
authorized or unauthorized use. Also refer to the USGS Water
Resources Software User Rights Notice for complete use, copyright,
and distribution information.


MODPATH-RW name file data
-------------------------
   MPBAS File: mpathrw.mpbas
  GRBDIS File: mf6_model.dis.grb
    TDIS File: mf6_sim.tdis
    HEAD File: mf6_model_steady.hds
  BUDGET File: mf6_model_steady.bud
     DSP File: mpathrw.dsp
  RWOPTS File: mpathrw.rwopts
      IC File: mpathrw.ic.npx8
   GPKDE File: mpathrw.gpkde

Grid data
---------
Grid file type: MODFLOW-6 DIS binary grid file.
Time discretization file type: MODFLOW-6 time discretization file.
 # File generated by Flopy version 3.3.6 on 03/28/2023 at 09:17:49.

 Time discretization file data
 -----------------------------
 Stress period count =          1
 Period length:      100.00000 Time step count:         1 Time step multiplier:        1.00000

 The budget file was opened successfully.

 MODPATH basic data file data
 ----------------------------
 # # MPBAS package for MODPATH 7 generated by Flopy 3.3.6
 Aquifer head is set to  1.00000E+30 at cells with IDOMAIN = 0.
 Aquifer head is set to -1.00000E+30 at all dry cells when Newton-Raphson rewetting is not active.


                 POROSITY =  0.350000     FOR LAYER   1

 MODPATH-RW simulation file data
 -------------------------------
 # MPSIM package for MODPATH 7 generated by Flopy 3.3.6
RWPT with Timeseries Analysis (Simulation type = 5)
Forward tracking (Tracking direction =  1)
Stop particles when they enter weak sink cells. (Weak sink option = 2)
Let particles pass through weak source cells for backtracking simulations (Weak source option = 1)
No timeseries output, skip TimeseriesWriter (Timeseries output option = 2)
Particle groups with default mass and soluteid (ParticlesMassOption = 0)
Solutes with the same dispersion (SolutesOption= 0)
Reference time =   0.0000000E+00
Specify a limit for tracking time (Stoping time option =  3)
Stop time =   0.1501000E+03
The zone value for all cells = 1

The retardation factor for all cells = 1

Number of particle groups =     0

The simulation will be run with stoptime =   0.1501000E+03

 MODPATH-RW GPKDE file data
 --------------------------
GPKDE reconstruction is enabled
GPKDE reconstruction with kernel database
GPKDE output is requested to be expressed as resident concentration.
Porosity and retardation are spatially uniform, GPKDE output is given as concentration.

 MODPATH-RW OBS file data
 --------------------------
No observations were specified

 MODPATH-RW RWOPTS file data
 ---------------------------
RW time step will be selected with the MIN_ADV_DISP criteria.
RW advection integration is EULERIAN.
Random displacements for 2 dimensions.
Random displacements for X dimension.
Random displacements for Y dimension.

 MODPATH-RW IC file data
 -----------------------
Given number of initial conditions =     1
Processing initial condition:     1



                       IC           FOR LAYER   1
 READING ON UNIT  123 WITH FORMAT: (1000E15.6)         
Original particle mass for initial condition =   5.468750000E-003
Effective particle mass for initial condition =   4.320987654E-003
Retardation factor is unitary so total dissolved mass is the total mass.
Total accumulated mass for initial condition =   9.800000000E+002
Total number of particles for this initial condition =     226800
Total number of particles on initial conditions =     226800


 MODPATH-RW SRC file data
 ------------------------
SRC package was not specified in name file.

 Budget File Data
 ----------------
    Budget file type:  Unstructured grid
  Budget file format:  Compact
    Budget precision:  Double

 MODPATH-RW IMP file data
 ------------------------
IMP package was not specified in name file.

 MODPATH-RW SPC file data
 ------------------------
SPC package was not specified in name file.
ParticlesMassOption.ne.2. Will create a single solute and leave.

 MODPATH-RW DSP file data
 ------------------------
Given number of dispersion parameters/models =     1
Simulation is single dispersion, will read only first dispersion data.
Processing dispersion data:     1
Dispersion model is linear, isotropic: will read dmeff and dispersivities

           DMEFF          =   0.00000     FOR LAYER   1

          ALPHAL          =  2.000000E-02 FOR LAYER   1

         ALPHATH          =  2.000000E-03 FOR LAYER   1

 TransportModelData: verify SPC-DSP relations 
 ---------------------------------------------
Simulation is single dispersion. Is consistent.

------------------------------
 GPKDE module is initializing 
 GPKDE initializing Histogram 
   Histogram determines dimensions to be analyzed based on binSizes 
   Will compute Histogram considering            2  dimensions 
   binSize            :   1.0000000000000000        1.0000000000000000        0.0000000000000000     
   domainSize         :   1000.0000000000000        200.00000000000000        0.0000000000000000     
   domainOrigin       :   0.0000000000000000        0.0000000000000000        0.0000000000000000     
   Computed nBins     :        1000         200           1
   Dimensionality for reconstruction is determined from nBins 
   Will perform reconstruction in            2  dimensions.
 Initializing kernels database with parameters: 
  minHOverLambda         :  0.25000000000000000     
  maxHOverLambda         :   15.000000000000000     
  deltaHOverLambda       :   9.5217315400513772E-002
 Database is for kernels 2D 
 GPKDE module is initialized  
------------------------------



 Run particle tracking simulation ...

 ----------------------------------------------------------------------------------------------
 Processing Time Step     1 Period     1.  Time =  1.00000E+02  Steady-state flow                                                    
   (Cumulative step =      1)
 ----------------------------------------------------------------------------------------------

GPKDE histogram statistics 
   Max count         :   80.999999999748411     
   Max raw density   :   80.999999999748411     
   Min count         :   0.0000000000000000     
   Min raw density   :   0.0000000000000000     
   Mean raw density  :   80.999999999744873     


GPKDE data points statistics 
   Mean coordinates                 :   29.999999999999996        100.00000000000004       0.50000000000000000     
   Std. dev. coordinates            :   5.7734135939444036        40.414506115096295        0.0000000000000000     
   Std. sigma scale                 :   15.275132045172183     
   Global smoothing scale Silverman :   1.9560402994866122     

 GPKDE compute density 
   initialSmoothing   :   1.9560402994866122        1.9560402994866122        0.0000000000000000     
 GPKDE Optimization -- Time: 0 -- Specie: 1
|-----------------------------------------------------------|
| Loop |  hHatOverLambda |     ALMISE      |      RMSE      |
|-----------------------------------------------------------|
     0  1.956040299E+000  0.000000000E+000  5.569056433E-005
     1  1.302571203E+000  2.403510800E-008  4.315213836E-005
     2  1.045249169E+000  6.341449883E-008  3.189680027E-005
     3  8.409805102E-001  1.112306334E-007  2.632513012E-005
     4  7.510022941E-001  1.873985860E-007  1.928447797E-005
     5  7.762663695E-001  3.693346599E-007  1.896022280E-005
     6  7.309256940E-001  6.015714197E-007  3.243960723E-005
     7  6.339524274E-001  4.683696368E-007  2.120358662E-005
     8  6.892380154E-001  4.530371258E-007  1.989288359E-005
     9  7.427239352E-001  7.070209268E-007  1.907584550E-005
    10  7.445241762E-001  8.525990279E-007  2.612854706E-005
    11  6.182402656E-001  4.561348971E-007  2.502855586E-005
    12  6.700556773E-001  4.016475916E-007  2.084001589E-005
    13  7.050089495E-001  5.444931399E-007  1.920860031E-005
    14  7.551748092E-001  7.942208240E-007  2.147667346E-005
    15  7.166800377E-001  7.607688396E-007  2.039407336E-005
    16  6.957546594E-001  6.438228023E-007  1.998060103E-005
    17  7.346672080E-001  6.774779383E-007  1.921760711E-005
    18  7.460873605E-001  8.089933272E-007  2.900074033E-005
    19  6.369447075E-001  5.391749190E-007  2.148573426E-005
    20  6.851356423E-001  4.214581929E-007  1.955372792E-005
    - Max loops 

GPKDE histogram statistics 
   Max count         :   109.99999999965840     
   Max raw density   :   109.99999999965840     
   Min count         :   0.0000000000000000     
   Min raw density   :   0.0000000000000000     
   Mean raw density  :   70.108191653568952     


GPKDE data points statistics 
   Mean coordinates                 :   34.163775925860108        100.50359927390406       0.50000000000000000     
   Std. dev. coordinates            :   7.1511726872739301        41.025059261298217        0.0000000000000000     
   Std. sigma scale                 :   17.128259785605490     
   Global smoothing scale Silverman :   2.1933405421074119     

 GPKDE compute density 
   initialSmoothing   :   2.1933405421074119        2.1933405421074119        0.0000000000000000     
 GPKDE Optimization -- Time: 1 -- Specie: 1
|-----------------------------------------------------------|
| Loop |  hHatOverLambda |     ALMISE      |      RMSE      |
|-----------------------------------------------------------|
     0  2.193340542E+000  0.000000000E+000  6.599715712E-005
     1  1.313236010E+000  2.223155646E-008  5.154521805E-005
     2  1.013669098E+000  6.001447992E-008  4.273731723E-005
     3  8.297225450E-001  9.357867140E-008  3.701376935E-005
     4  7.452594994E-001  1.324030204E-007  3.330264365E-005
     5  6.933469002E-001  1.643364457E-007  3.101526759E-005
     6  6.696421505E-001  1.826680418E-007  2.971170839E-005
     7  6.556113061E-001  1.937069159E-007  2.938979100E-005
     8  6.510659819E-001  1.991453024E-007  2.904393288E-005
    - ALMISE convergence    2.0070E-07

GPKDE histogram statistics 
   Max count         :   112.99999999964909     
   Max raw density   :   112.99999999964909     
   Min count         :   0.0000000000000000     
   Min raw density   :   0.0000000000000000     
   Mean raw density  :   65.853658536380934     


GPKDE data points statistics 
   Mean coordinates                 :   38.101762508321642        101.07617461055715       0.50000000000000000     
   Std. dev. coordinates            :   9.2998558909208562        41.612333542799291        0.0000000000000000     
   Std. sigma scale                 :   19.672028498173887     
   Global smoothing scale Silverman :   2.5190800577883632     

 GPKDE compute density 
   initialSmoothing   :   2.5190800577883632        2.5190800577883632        0.0000000000000000     
 GPKDE Optimization -- Time: 2 -- Specie: 1
|-----------------------------------------------------------|
| Loop |  hHatOverLambda |     ALMISE      |      RMSE      |
|-----------------------------------------------------------|
     0  2.519080058E+000  0.000000000E+000  8.049114806E-005
     1  1.422439117E+000  1.745114548E-008  6.024206092E-005
     2  1.031053551E+000  5.101590055E-008  4.770614365E-005
     3  8.279277947E-001  8.665138665E-008  3.966907838E-005
     4  7.274477700E-001  1.327923065E-007  3.503206775E-005
     5  6.674537032E-001  1.786620499E-007  3.281790371E-005
     6  6.452186785E-001  2.076278993E-007  3.174630931E-005
     7  6.318663970E-001  2.228102968E-007  3.128286959E-005
     8  6.276586206E-001  2.281423428E-007  3.109692296E-005
     9  6.225031278E-001  2.347984578E-007  3.092787241E-005
    - ALMISE convergence    2.3586E-07

GPKDE histogram statistics 
   Max count         :   111.99999999965220     
   Max raw density   :   111.99999999965220     
   Min count         :   0.0000000000000000     
   Min raw density   :   0.0000000000000000     
   Mean raw density  :   62.239297475108820     


GPKDE data points statistics 
   Mean coordinates                 :   41.935119301280402        101.58391709086771       0.50000000000000000     
   Std. dev. coordinates            :   11.561918284733711        41.885711849865295        0.0000000000000000     
   Std. sigma scale                 :   22.006344033165639     
   Global smoothing scale Silverman :   2.8179982762796163     

 GPKDE compute density 
   initialSmoothing   :   2.8179982762796163        2.8179982762796163        0.0000000000000000     
 GPKDE Optimization -- Time: 3 -- Specie: 1
|-----------------------------------------------------------|
| Loop |  hHatOverLambda |     ALMISE      |      RMSE      |
|-----------------------------------------------------------|
     0  2.817998276E+000  0.000000000E+000  9.048639333E-005
     1  1.468657398E+000  1.507340076E-008  6.566693501E-005
     2  1.021918189E+000  4.731007660E-008  5.092774811E-005
     3  8.043170855E-001  8.698276364E-008  4.132464623E-005
     4  7.027601717E-001  1.451516003E-007  3.678865907E-005
     5  6.552736310E-001  2.010740717E-007  3.468393270E-005
     6  6.347587439E-001  2.379336217E-007  3.370716624E-005
     7  6.232025416E-001  2.615123126E-007  3.324450955E-005
     8  6.187725248E-001  2.789588924E-007  3.293178960E-005
     9  6.159117727E-001  2.880420049E-007  3.298873843E-005
    - ALMISE convergence    2.8780E-07

GPKDE histogram statistics 
   Max count         :   120.99999999962427     
   Max raw density   :   120.99999999962427     
   Min count         :   0.0000000000000000     
   Min raw density   :   0.0000000000000000     
   Mean raw density  :   59.077884865667194     


GPKDE data points statistics 
   Mean coordinates                 :   45.619220356871274        101.93076677049233       0.50000000000000000     
   Std. dev. coordinates            :   13.822325355635746        41.875313891762147        0.0000000000000000     
   Std. sigma scale                 :   24.058557998793482     
   Global smoothing scale Silverman :   3.0807922873602611     

 GPKDE compute density 
   initialSmoothing   :   3.0807922873602611        3.0807922873602611        0.0000000000000000     
 GPKDE Optimization -- Time: 4 -- Specie: 1
|-----------------------------------------------------------|
| Loop |  hHatOverLambda |     ALMISE      |      RMSE      |
|-----------------------------------------------------------|
     0  3.080792287E+000  0.000000000E+000  9.666631873E-005
     1  1.520205318E+000  1.297744977E-008  6.768341180E-005
     2  1.012634743E+000  4.398044580E-008  5.109377140E-005
     3  7.894714419E-001  8.617894310E-008  4.118451456E-005
     4  6.907751463E-001  1.565879812E-007  3.651078564E-005
     5  6.448667236E-001  2.369942838E-007  3.428888212E-005
     6  6.263444061E-001  3.057642127E-007  3.342579999E-005
     7  6.165066798E-001  3.603875064E-007  3.303740578E-005
     8  6.126450571E-001  4.029322298E-007  3.302391858E-005
     9  6.120659692E-001  4.476946139E-007  3.284835854E-005
    10  6.114815742E-001  4.631358190E-007  3.287710614E-005
    11  6.109445840E-001  4.731253667E-007  3.282855150E-005
    12  6.114160718E-001  4.673430656E-007  3.287507597E-005
    13  6.109984439E-001  4.727765377E-007  3.284026273E-005
    - ALMISE convergence    4.7077E-07

GPKDE histogram statistics 
   Max count         :   112.99999999964909     
   Max raw density   :   112.99999999964909     
   Min count         :   0.0000000000000000     
   Min raw density   :   0.0000000000000000     
   Mean raw density  :   55.972359328553090     


GPKDE data points statistics 
   Mean coordinates                 :   49.377303378661757        102.12419686950386       0.50000000000000000     
   Std. dev. coordinates            :   16.307573818263393        41.783924008111086        0.0000000000000000     
   Std. sigma scale                 :   26.103532810310934     
   Global smoothing scale Silverman :   3.3426592964921018     

 GPKDE compute density 
   initialSmoothing   :   3.3426592964921018        3.3426592964921018        0.0000000000000000     
 GPKDE Optimization -- Time: 5 -- Specie: 1
|-----------------------------------------------------------|
| Loop |  hHatOverLambda |     ALMISE      |      RMSE      |
|-----------------------------------------------------------|
     0  3.342659296E+000  0.000000000E+000  1.033977684E-004
     1  1.590329332E+000  1.090437856E-008  7.078496051E-005
     2  1.014273811E+000  3.937443792E-008  5.182540703E-005
     3  7.738345742E-001  8.583011347E-008  4.135773632E-005
     4  6.778782169E-001  1.597944188E-007  3.669453443E-005
     5  6.388640848E-001  2.344961639E-007  3.475023504E-005
     6  6.233488488E-001  3.108995449E-007  3.403325448E-005
     7  6.170916461E-001  3.801589304E-007  3.384732051E-005
     8  6.152824172E-001  4.239754042E-007  3.359711830E-005
     9  6.123344692E-001  4.464591111E-007  3.352947720E-005
    10  6.130504872E-001  4.587356816E-007  3.349778894E-005
    - ALMISE convergence    4.5722E-07

GPKDE histogram statistics 
   Max count         :   115.99999999963978     
   Max raw density   :   115.99999999963978     
   Min count         :   0.0000000000000000     
   Min raw density   :   0.0000000000000000     
   Mean raw density  :   53.301997649658546     


GPKDE data points statistics 
   Mean coordinates                 :   53.216579798481867        101.91497407068208       0.50000000000000000     
   Std. dev. coordinates            :   18.846704796772613        41.839827214142439        0.0000000000000000     
   Std. sigma scale                 :   28.081005542054857     
   Global smoothing scale Silverman :   3.5958824007499470     

 GPKDE compute density 
   initialSmoothing   :   3.5958824007499470        3.5958824007499470        0.0000000000000000     
 GPKDE Optimization -- Time: 6 -- Specie: 1
|-----------------------------------------------------------|
| Loop |  hHatOverLambda |     ALMISE      |      RMSE      |
|-----------------------------------------------------------|
     0  3.595882401E+000  0.000000000E+000  1.072243792E-004
     1  1.651593397E+000  9.050451388E-009  7.488595918E-005
     2  1.020665838E+000  3.517057044E-008  5.276164173E-005
     3  7.594896646E-001  8.420068770E-008  4.074316643E-005
     4  6.610341353E-001  1.712390766E-007  3.606639175E-005
     5  6.289831345E-001  2.861835695E-007  3.455462515E-005
     6  6.178907972E-001  4.242400025E-007  3.400604271E-005
     7  6.129778650E-001  5.771355672E-007  3.387248185E-005
     8  6.108580527E-001  7.476208949E-007  3.374140906E-005
     9  6.093887118E-001  8.194510122E-007  3.369853799E-005
    10  6.090850765E-001  8.926871122E-007  3.369764738E-005
    11  6.081190155E-001  9.038843676E-007  3.364709591E-005
    12  6.081892021E-001  9.457633574E-007  3.369889492E-005
    13  6.075788532E-001  9.625627722E-007  3.363527497E-005
    14  6.084479869E-001  9.729357218E-007  3.364817520E-005
    15  6.078442959E-001  1.006215126E-006  3.364199646E-005
    16  6.082389230E-001  9.773792713E-007  3.364196587E-005
    17  6.076295672E-001  1.010306940E-006  3.361486256E-005
    18  6.083684067E-001  9.788983869E-007  3.364064175E-005
    19  6.078370145E-001  1.011081035E-006  3.365733867E-005
    20  6.085672787E-001  9.753610196E-007  3.361847041E-005
    - Max loops 

GPKDE histogram statistics 
   Max count         :   118.99999999963048     
   Max raw density   :   118.99999999963048     
   Min count         :   0.0000000000000000     
   Min raw density   :   0.0000000000000000     
   Mean raw density  :   51.092588420657165     


GPKDE data points statistics 
   Mean coordinates                 :   57.100656177445629        101.46047047055616       0.50000000000000000     
   Std. dev. coordinates            :   21.374365590589893        42.027071656231556        0.0000000000000000     
   Std. sigma scale                 :   29.971686543840196     
   Global smoothing scale Silverman :   3.8379914851119841     

 GPKDE compute density 
   initialSmoothing   :   3.8379914851119841        3.8379914851119841        0.0000000000000000     
 GPKDE Optimization -- Time: 7 -- Specie: 1
|-----------------------------------------------------------|
| Loop |  hHatOverLambda |     ALMISE      |      RMSE      |
|-----------------------------------------------------------|
     0  3.837991485E+000  0.000000000E+000  1.141394394E-004
     1  1.650665581E+000  7.917222403E-009  7.645492090E-005
     2  1.005499819E+000  3.410097483E-008  5.282688761E-005
     3  7.425850593E-001  8.731888291E-008  4.018499531E-005
     4  6.533470884E-001  1.758186418E-007  3.575276920E-005
     5  6.274100327E-001  2.549281601E-007  3.454953704E-005
     6  6.179130792E-001  3.164615562E-007  3.413195784E-005
     7  6.142736791E-001  3.575929420E-007  3.402725809E-005
     8  6.118798956E-001  4.053037751E-007  3.388400573E-005
     9  6.109837582E-001  4.250320745E-007  3.383318617E-005
    - ALMISE convergence    4.2612E-07

GPKDE histogram statistics 
   Max count         :   115.99999999963978     
   Max raw density   :   115.99999999963978     
   Min count         :   0.0000000000000000     
   Min raw density   :   0.0000000000000000     
   Mean raw density  :   48.858250753833978     


GPKDE data points statistics 
   Mean coordinates                 :   61.012327125467621        101.04056533320369       0.50000000000000000     
   Std. dev. coordinates            :   23.724139415903817        42.258113892080516        0.0000000000000000     
   Std. sigma scale                 :   31.662870770491736     
   Global smoothing scale Silverman :   4.0545542284914777     

 GPKDE compute density 
   initialSmoothing   :   4.0545542284914777        4.0545542284914777        0.0000000000000000     
 GPKDE Optimization -- Time: 8 -- Specie: 1
|-----------------------------------------------------------|
| Loop |  hHatOverLambda |     ALMISE      |      RMSE      |
|-----------------------------------------------------------|
     0  4.054554228E+000  0.000000000E+000  1.185282085E-004
     1  1.650799523E+000  6.957340370E-009  7.572222670E-005
     2  9.953977105E-001  3.331321274E-008  5.152673724E-005
     3  7.287305005E-001  8.556338478E-008  3.858690748E-005
     4  6.496542866E-001  1.834219072E-007  3.481560508E-005
     5  6.259395502E-001  2.785567571E-007  3.367558087E-005
     6  6.172216779E-001  3.667122483E-007  3.324993328E-005
     7  6.144360974E-001  4.667546662E-007  3.308400110E-005
     8  6.123744187E-001  5.200287923E-007  3.307325287E-005
    - Bandwidth convergence    9.8148E-03

GPKDE histogram statistics 
   Max count         :   108.99999999966151     
   Max raw density   :   108.99999999966151     
   Min count         :   0.0000000000000000     
   Min raw density   :   0.0000000000000000     
   Mean raw density  :   46.695491043709481     


GPKDE data points statistics 
   Mean coordinates                 :   64.949553205092613        100.79251998196139       0.50000000000000000     
   Std. dev. coordinates            :   25.791077283324235        42.503437356841204        0.0000000000000000     
   Std. sigma scale                 :   33.109053711594079     
   Global smoothing scale Silverman :   4.2397436006593159     

 GPKDE compute density 
   initialSmoothing   :   4.2397436006593159        4.2397436006593159        0.0000000000000000     
 GPKDE Optimization -- Time: 9 -- Specie: 1
|-----------------------------------------------------------|
| Loop |  hHatOverLambda |     ALMISE      |      RMSE      |
|-----------------------------------------------------------|
     0  4.239743601E+000  0.000000000E+000  1.177564065E-004
     1  1.668361905E+000  6.251601123E-009  7.593772092E-005
     2  9.986454444E-001  3.157146029E-008  5.172999981E-005
     3  7.278040025E-001  8.462991777E-008  3.865540233E-005
     4  6.465025133E-001  1.789314440E-007  3.475293357E-005
     5  6.211981257E-001  2.889380393E-007  3.352318501E-005
     6  6.129286530E-001  5.778933492E-007  3.310749014E-005
     7  6.090230787E-001  8.067954991E-007  3.299546566E-005
     8  6.078731451E-001  1.032878491E-006  3.296011336E-005
     9  6.054994909E-001  6.240869965E-007  3.284374104E-005
    10  6.064233158E-001  7.265109021E-007  3.292043065E-005
    11  6.059174583E-001  8.713486894E-007  3.283396648E-005
    12  6.062293503E-001  1.051370469E-006  3.289869696E-005
    13  6.060354818E-001  1.184420484E-006  3.281670666E-005
    14  6.052763284E-001  1.099256114E-006  3.288920907E-005
    15  6.048470434E-001  5.812420132E-007  3.281037027E-005
    16  6.054099920E-001  6.700632452E-007  3.288580721E-005
    17  6.059885130E-001  7.051394192E-007  3.279249287E-005
    18  6.058175909E-001  8.127288125E-007  3.290296210E-005
    19  6.057942504E-001  1.175724346E-006  3.282538449E-005
    20  6.059091383E-001  1.067938037E-006  3.292033552E-005
    - Max loops 

GPKDE histogram statistics 
   Max count         :   112.99999999964909     
   Max raw density   :   112.99999999964909     
   Min count         :   0.0000000000000000     
   Min raw density   :   0.0000000000000000     
   Mean raw density  :   44.769048558882083     


GPKDE data points statistics 
   Mean coordinates                 :   69.024603534798786        100.67308098941646       0.50000000000000000     
   Std. dev. coordinates            :   27.848318522469636        42.764396156665704        0.0000000000000000     
   Std. sigma scale                 :   34.509658439223983     
   Global smoothing scale Silverman :   4.4190965046338153     

 GPKDE compute density 
   initialSmoothing   :   4.4190965046338153        4.4190965046338153        0.0000000000000000     
 GPKDE Optimization -- Time: 10 -- Specie: 1
|-----------------------------------------------------------|
| Loop |  hHatOverLambda |     ALMISE      |      RMSE      |
|-----------------------------------------------------------|
     0  4.419096505E+000  0.000000000E+000  1.201161113E-004
     1  1.633257215E+000  5.772699604E-009  7.513108391E-005
     2  9.897091424E-001  3.134820392E-008  5.168563944E-005
     3  7.280893094E-001  8.530397178E-008  3.883660502E-005
     4  6.469579250E-001  1.799549276E-007  3.501233035E-005
     5  6.235676070E-001  2.834356856E-007  3.397455115E-005
     6  6.151895958E-001  4.006979828E-007  3.355343889E-005
     7  6.117700454E-001  5.101622111E-007  3.338395220E-005
     8  6.098224748E-001  5.795586682E-007  3.331980545E-005
     9  6.100008493E-001  6.863463779E-007  3.330944305E-005
    10  6.086399424E-001  7.196515672E-007  3.329056684E-005
    11  6.097297735E-001  7.609513360E-007  3.330491951E-005
    12  6.093286757E-001  7.869375450E-007  3.333683296E-005
    - ALMISE convergence    7.7999E-07

GPKDE histogram statistics 
   Max count         :   108.99999999966151     
   Max raw density   :   108.99999999966151     
   Min count         :   0.0000000000000000     
   Min raw density   :   0.0000000000000000     
   Mean raw density  :   42.719909587360746     


GPKDE data points statistics 
   Mean coordinates                 :   73.180499110108940        100.61559343234744       0.50000000000000000     
   Std. dev. coordinates            :   29.890052897661608        43.044981595256289        0.0000000000000000     
   Std. sigma scale                 :   35.869440710179475     
   Global smoothing scale Silverman :   4.5932219336416127     

 GPKDE compute density 
   initialSmoothing   :   4.5932219336416127        4.5932219336416127        0.0000000000000000     
 GPKDE Optimization -- Time: 11 -- Specie: 1
|-----------------------------------------------------------|
| Loop |  hHatOverLambda |     ALMISE      |      RMSE      |
|-----------------------------------------------------------|
     0  4.593221934E+000  0.000000000E+000  1.171791247E-004
     1  1.637199478E+000  5.473877207E-009  7.377008504E-005
     2  9.944185546E-001  2.953380874E-008  5.011252480E-005
     3  7.290904674E-001  8.418604350E-008  3.730594004E-005
     4  6.510010214E-001  1.959227360E-007  3.366501710E-005
     5  6.259214342E-001  3.159824236E-007  3.261402066E-005
     6  6.186170969E-001  4.465971117E-007  3.230172303E-005
     7  6.156218803E-001  5.998780431E-007  3.218019144E-005
     8  6.157467610E-001  7.462683771E-007  3.219527418E-005
     9  6.153607772E-001  8.539839488E-007  3.216424918E-005
    10  6.142766362E-001  8.289687254E-007  3.215572609E-005
    11  6.139968389E-001  8.192356116E-007  3.212843167E-005
    12  6.146389776E-001  8.704805813E-007  3.216541832E-005
    13  6.136054551E-001  8.599525389E-007  3.215001533E-005
    14  6.143857771E-001  9.020651610E-007  3.216280888E-005
    15  6.142046878E-001  9.111733616E-007  3.215892372E-005
    16  6.140966329E-001  9.396069671E-007  3.211508551E-005