
MODPATH-RW Version 0.0.1               
Program compiled Mar 28 2023 10:15:59 with GFORTRAN compiler (ver. 12.1.0)                

This program has been developed and published by the Hydrogeology
Group (GHS), Universitat Politècnica de Catalunya (UPC). It is free
to use and modify under the condition that neither the GHS nor UPC
shall be considered legally responsible for any wrongdoing or damages
derived from its use. The code is an extension of software originally
released by the U.S. Geological Survey (USGS), without endorsement
from this institution, explicit or implied. Their release conditions
also apply (see disclaimer below).

This software has been approved for release by the U.S. Geological
Survey (USGS). Although the software has been subjected to rigorous
review, the USGS reserves the right to update the software as needed
pursuant to further analysis and review. No warranty, expressed or
implied, is made by the USGS or the U.S. Government as to the
functionality of the software and related material nor shall the
fact of release constitute any such warranty. Furthermore, the
software is released on condition that neither the USGS nor the U.S.
Government shall be held liable for any damages resulting from its
authorized or unauthorized use. Also refer to the USGS Water
Resources Software User Rights Notice for complete use, copyright,
and distribution information.


MODPATH-RW name file data
-------------------------
   MPBAS File: mpathrw.mpbas
  GRBDIS File: mf6_model.dis.grb
    TDIS File: mf6_sim.tdis
    HEAD File: mf6_model_steady.hds
  BUDGET File: mf6_model_steady.bud
     DSP File: mpathrw.dsp
  RWOPTS File: mpathrw.rwopts
      IC File: mpathrw.ic.npx40
   GPKDE File: mpathrw.gpkde

Grid data
---------
Grid file type: MODFLOW-6 DIS binary grid file.
Time discretization file type: MODFLOW-6 time discretization file.
 # File generated by Flopy version 3.3.6 on 03/28/2023 at 09:17:49.

 Time discretization file data
 -----------------------------
 Stress period count =          1
 Period length:      100.00000 Time step count:         1 Time step multiplier:        1.00000

 The budget file was opened successfully.

 MODPATH basic data file data
 ----------------------------
 # # MPBAS package for MODPATH 7 generated by Flopy 3.3.6
 Aquifer head is set to  1.00000E+30 at cells with IDOMAIN = 0.
 Aquifer head is set to -1.00000E+30 at all dry cells when Newton-Raphson rewetting is not active.


                 POROSITY =  0.350000     FOR LAYER   1

 MODPATH-RW simulation file data
 -------------------------------
 # MPSIM package for MODPATH 7 generated by Flopy 3.3.6
RWPT with Timeseries Analysis (Simulation type = 5)
Forward tracking (Tracking direction =  1)
Stop particles when they enter weak sink cells. (Weak sink option = 2)
Let particles pass through weak source cells for backtracking simulations (Weak source option = 1)
No timeseries output, skip TimeseriesWriter (Timeseries output option = 2)
Particle groups with default mass and soluteid (ParticlesMassOption = 0)
Solutes with the same dispersion (SolutesOption= 0)
Reference time =   0.0000000E+00
Specify a limit for tracking time (Stoping time option =  3)
Stop time =   0.1501000E+03
The zone value for all cells = 1

The retardation factor for all cells = 1

Number of particle groups =     0

The simulation will be run with stoptime =   0.1501000E+03

 MODPATH-RW GPKDE file data
 --------------------------
GPKDE reconstruction is enabled
GPKDE reconstruction with kernel database
GPKDE output is requested to be expressed as resident concentration.
Porosity and retardation are spatially uniform, GPKDE output is given as concentration.

 MODPATH-RW OBS file data
 --------------------------
No observations were specified

 MODPATH-RW RWOPTS file data
 ---------------------------
RW time step will be selected with the MIN_ADV_DISP criteria.
RW advection integration is EULERIAN.
Random displacements for 2 dimensions.
Random displacements for X dimension.
Random displacements for Y dimension.

 MODPATH-RW IC file data
 -----------------------
Given number of initial conditions =     1
Processing initial condition:     1



                       IC           FOR LAYER   1
 READING ON UNIT  123 WITH FORMAT: (1000E15.6)         
Original particle mass for initial condition =   2.187500000E-004
Effective particle mass for initial condition =   2.082093992E-004
Retardation factor is unitary so total dissolved mass is the total mass.
Total accumulated mass for initial condition =   9.800000000E+002
Total number of particles for this initial condition =    4706800
Total number of particles on initial conditions =    4706800


 MODPATH-RW SRC file data
 ------------------------
SRC package was not specified in name file.

 Budget File Data
 ----------------
    Budget file type:  Unstructured grid
  Budget file format:  Compact
    Budget precision:  Double

 MODPATH-RW IMP file data
 ------------------------
IMP package was not specified in name file.

 MODPATH-RW SPC file data
 ------------------------
SPC package was not specified in name file.
ParticlesMassOption.ne.2. Will create a single solute and leave.

 MODPATH-RW DSP file data
 ------------------------
Given number of dispersion parameters/models =     1
Simulation is single dispersion, will read only first dispersion data.
Processing dispersion data:     1
Dispersion model is linear, isotropic: will read dmeff and dispersivities

           DMEFF          =   0.00000     FOR LAYER   1

          ALPHAL          =  2.000000E-02 FOR LAYER   1

         ALPHATH          =  2.000000E-03 FOR LAYER   1

 TransportModelData: verify SPC-DSP relations 
 ---------------------------------------------
Simulation is single dispersion. Is consistent.

------------------------------
 GPKDE module is initializing 
 GPKDE initializing Histogram 
   Histogram determines dimensions to be analyzed based on binSizes 
   Will compute Histogram considering            2  dimensions 
   binSize            :   1.0000000000000000        1.0000000000000000        0.0000000000000000     
   domainSize         :   1000.0000000000000        200.00000000000000        0.0000000000000000     
   domainOrigin       :   0.0000000000000000        0.0000000000000000        0.0000000000000000     
   Computed nBins     :        1000         200           1
   Dimensionality for reconstruction is determined from nBins 
   Will perform reconstruction in            2  dimensions.
 Initializing kernels database with parameters: 
  minHOverLambda         :  0.25000000000000000     
  maxHOverLambda         :   15.000000000000000     
  deltaHOverLambda       :   9.5217315400513772E-002
 Database is for kernels 2D 
 GPKDE module is initialized  
------------------------------



 Run particle tracking simulation ...

 ----------------------------------------------------------------------------------------------
 Processing Time Step     1 Period     1.  Time =  1.00000E+02  Steady-state flow                                                    
   (Cumulative step =      1)
 ----------------------------------------------------------------------------------------------

GPKDE histogram statistics 
   Max count         :   1681.0000000564216     
   Max raw density   :   1681.0000000564216     
   Min count         :   0.0000000000000000     
   Min raw density   :   0.0000000000000000     
   Mean raw density  :   1681.0000000564166     


GPKDE data points statistics 
   Mean coordinates                 :   30.000000000000000        99.999999999999829       0.50000000000000000     
   Std. dev. coordinates            :   5.7734983986972495        40.414518229961992        0.0000000000000000     
   Std. sigma scale                 :   15.275246521244963     
   Global smoothing scale Silverman :   1.1799599598143151     

 GPKDE compute density 
   initialSmoothing   :   1.1799599598143151        1.1799599598143151        0.0000000000000000     
 GPKDE Optimization -- Time: 0 -- Specie: 1
|-----------------------------------------------------------|
| Loop |  hHatOverLambda |     ALMISE      |      RMSE      |
|-----------------------------------------------------------|
     0  1.179959960E+000  0.000000000E+000  4.210452775E-005
     1  6.549681288E-001  3.916182042E-007  2.471098408E-005
     2  5.477454918E-001  2.005214318E-006  2.123008440E-005
     3  5.270239874E-001  5.119542303E-006  1.987361012E-005
     4  5.397082780E-001  8.673816393E-006  1.878864017E-005
     5  5.652253547E-001  1.602319663E-005  1.887601110E-005
     6  5.743876220E-001  2.434512415E-005  1.898219163E-005
     7  5.470958712E-001  2.400745711E-005  2.026382848E-005
     8  5.493784952E-001  2.096440979E-005  1.888204288E-005
     9  5.625444316E-001  2.191370603E-005  1.888871341E-005
    10  5.759946607E-001  2.425699608E-005  1.882915167E-005
    - ALMISE convergence    2.4237E-05

GPKDE histogram statistics 
   Max count         :   1897.0000000636664     
   Max raw density   :   1897.0000000636664     
   Min count         :   0.0000000000000000     
   Min raw density   :   0.0000000000000000     
   Mean raw density  :   1400.0000000469945     


GPKDE data points statistics 
   Mean coordinates                 :   34.163538999542027        100.50484653745181       0.50000000000000000     
   Std. dev. coordinates            :   7.1513676647143098        41.025817799033838        0.0000000000000000     
   Std. sigma scale                 :   17.128651634803930     
   Global smoothing scale Silverman :   1.3231290942877301     

 GPKDE compute density 
   initialSmoothing   :   1.3231290942877301        1.3231290942877301        0.0000000000000000     
 GPKDE Optimization -- Time: 1 -- Specie: 1
|-----------------------------------------------------------|
| Loop |  hHatOverLambda |     ALMISE      |      RMSE      |
|-----------------------------------------------------------|
     0  1.323129094E+000  0.000000000E+000  4.693129291E-005
     1  6.561964909E-001  3.562850508E-007  2.635197628E-005
     2  5.275919749E-001  1.397580449E-006  1.953345085E-005
     3  5.040928778E-001  2.596794460E-006  1.913759189E-005
    - Density convergence    7.3795E-03

GPKDE histogram statistics 
   Max count         :   1925.0000000646055     
   Max raw density   :   1925.0000000646055     
   Min count         :   0.0000000000000000     
   Min raw density   :   0.0000000000000000     
   Mean raw density  :   1282.1574503290581     


GPKDE data points statistics 
   Mean coordinates                 :   38.103100184835945        101.07767812448749       0.50000000000000000     
   Std. dev. coordinates            :   9.3025064915019726        41.613780718948050        0.0000000000000000     
   Std. sigma scale                 :   19.675173830844642     
   Global smoothing scale Silverman :   1.5198391260327080     

 GPKDE compute density 
   initialSmoothing   :   1.5198391260327080        1.5198391260327080        0.0000000000000000     
 GPKDE Optimization -- Time: 2 -- Specie: 1
|-----------------------------------------------------------|
| Loop |  hHatOverLambda |     ALMISE      |      RMSE      |
|-----------------------------------------------------------|
     0  1.519839126E+000  0.000000000E+000  5.569267496E-005
     1  7.058345587E-001  2.836207354E-007  3.089025069E-005
     2  5.135021388E-001  1.230800015E-006  2.127900271E-005
    - Density convergence    9.4075E-03

GPKDE histogram statistics 
   Max count         :   1932.0000000648404     
   Max raw density   :   1932.0000000648404     
   Min count         :   0.0000000000000000     
   Min raw density   :   0.0000000000000000     
   Mean raw density  :   1197.6590331190798     


GPKDE data points statistics 
   Mean coordinates                 :   41.936789504398192        101.58458976664704       0.50000000000000000     
   Std. dev. coordinates            :   11.566959710020463        41.887369325457854        0.0000000000000000     
   Std. sigma scale                 :   22.011576802817149     
   Global smoothing scale Silverman :   1.7003181744778153     

 GPKDE compute density 
   initialSmoothing   :   1.7003181744778153        1.7003181744778153        0.0000000000000000     
 GPKDE Optimization -- Time: 3 -- Specie: 1
|-----------------------------------------------------------|
| Loop |  hHatOverLambda |     ALMISE      |      RMSE      |
|-----------------------------------------------------------|
     0  1.700318174E+000  0.000000000E+000  6.783533536E-005
     1  7.275528862E-001  2.449176482E-007  3.379932644E-005
     2  5.129820398E-001  1.252813917E-006  2.277293253E-005
    - Density convergence    9.0486E-03

GPKDE histogram statistics 
   Max count         :   1999.0000000670875     
   Max raw density   :   1999.0000000670875     
   Min count         :   0.0000000000000000     
   Min raw density   :   0.0000000000000000     
   Mean raw density  :   1113.7718883478451     


GPKDE data points statistics 
   Mean coordinates                 :   45.620684074592248        101.93100664132672       0.50000000000000000     
   Std. dev. coordinates            :   13.827808772324541        41.875856538774912        0.0000000000000000     
   Std. sigma scale                 :   24.063485541281747     
   Global smoothing scale Silverman :   1.8588210273917725     

 GPKDE compute density 
   initialSmoothing   :   1.8588210273917725        1.8588210273917725        0.0000000000000000     
 GPKDE Optimization -- Time: 4 -- Specie: 1
|-----------------------------------------------------------|
| Loop |  hHatOverLambda |     ALMISE      |      RMSE      |
|-----------------------------------------------------------|
     0  1.858821027E+000  0.000000000E+000  7.218715384E-005
     1  7.456135088E-001  2.150087577E-007  3.494816631E-005
     2  5.156287642E-001  1.177089034E-006  2.331328567E-005
     3  5.016216672E-001  3.889723713E-006  2.306641714E-005
    - Density convergence    5.3038E-03

GPKDE histogram statistics 
   Max count         :   1989.0000000667521     
   Max raw density   :   1989.0000000667521     
   Min count         :   0.0000000000000000     
   Min raw density   :   0.0000000000000000     
   Mean raw density  :   1049.6877788041868     


GPKDE data points statistics 
   Mean coordinates                 :   49.376459245429949        102.12474432276808       0.50000000000000000     
   Std. dev. coordinates            :   16.310664672758854        41.784758068896160        0.0000000000000000     
   Std. sigma scale                 :   26.106267011852154     
   Global smoothing scale Silverman :   2.0166188304302555     

 GPKDE compute density 
   initialSmoothing   :   2.0166188304302555        2.0166188304302555        0.0000000000000000     
 GPKDE Optimization -- Time: 5 -- Specie: 1
|-----------------------------------------------------------|
| Loop |  hHatOverLambda |     ALMISE      |      RMSE      |
|-----------------------------------------------------------|
     0  2.016618830E+000  0.000000000E+000  7.359288084E-005
     1  7.708833487E-001  1.842745294E-007  3.665858302E-005
     2  5.215193142E-001  1.111953933E-006  2.426257293E-005
     3  5.031330768E-001  4.006658320E-006  2.393108537E-005
    - Density convergence    5.2652E-03

GPKDE histogram statistics 
   Max count         :   2010.0000000674565     
   Max raw density   :   2010.0000000674565     
   Min count         :   0.0000000000000000     
   Min raw density   :   0.0000000000000000     
   Mean raw density  :   990.27982330275574     


GPKDE data points statistics 
   Mean coordinates                 :   53.213959693538094        101.91647018682818       0.50000000000000000     
   Std. dev. coordinates            :   18.846225302627641        41.840991742783750        0.0000000000000000     
   Std. sigma scale                 :   28.081039105949859     
   Global smoothing scale Silverman :   2.1691631443667383     

 GPKDE compute density 
   initialSmoothing   :   2.1691631443667383        2.1691631443667383        0.0000000000000000     
 GPKDE Optimization -- Time: 6 -- Specie: 1
|-----------------------------------------------------------|
| Loop |  hHatOverLambda |     ALMISE      |      RMSE      |
|-----------------------------------------------------------|
     0  2.169163144E+000  0.000000000E+000  8.012057807E-005
     1  8.073955481E-001  1.558825838E-007  3.869990037E-005
     2  5.215841291E-001  1.026066230E-006  2.379567271E-005
     3  5.040356317E-001  4.134859024E-006  2.347229803E-005
    - Density convergence    5.8696E-03

GPKDE histogram statistics 
   Max count         :   1971.0000000661485     
   Max raw density   :   1971.0000000661485     
   Min count         :   0.0000000000000000     
   Min raw density   :   0.0000000000000000     
   Mean raw density  :   939.66859655779274     


GPKDE data points statistics 
   Mean coordinates                 :   57.095818878321069        101.46203216691576       0.50000000000000000     
   Std. dev. coordinates            :   21.368055760829538        42.028621144255844        0.0000000000000000     
   Std. sigma scale                 :   29.967814737835628     
   Global smoothing scale Silverman :   2.3149100359591048     

 GPKDE compute density 
   initialSmoothing   :   2.3149100359591048        2.3149100359591048        0.0000000000000000     
 GPKDE Optimization -- Time: 7 -- Specie: 1
|-----------------------------------------------------------|
| Loop |  hHatOverLambda |     ALMISE      |      RMSE      |
|-----------------------------------------------------------|
     0  2.314910036E+000  0.000000000E+000  8.612000263E-005
     1  8.322173263E-001  1.366512848E-007  4.017547116E-005
     2  5.263350926E-001  9.322379063E-007  2.407070265E-005
     3  5.051629893E-001  4.003860170E-006  2.368343293E-005
    - Density convergence    6.0288E-03

GPKDE histogram statistics 
   Max count         :   2022.0000000678590     
   Max raw density   :   2022.0000000678590     
   Min count         :   0.0000000000000000     
   Min raw density   :   0.0000000000000000     
   Mean raw density  :   892.45354572582357     


GPKDE data points statistics 
   Mean coordinates                 :   61.008903840218856        101.04262433478786       0.50000000000000000     
   Std. dev. coordinates            :   23.718374006517106        42.258700174579161        0.0000000000000000     
   Std. sigma scale                 :   31.659242817381756     
   Global smoothing scale Silverman :   2.4455670048004423     

 GPKDE compute density 
   initialSmoothing   :   2.4455670048004423        2.4455670048004423        0.0000000000000000     
 GPKDE Optimization -- Time: 8 -- Specie: 1
|-----------------------------------------------------------|
| Loop |  hHatOverLambda |     ALMISE      |      RMSE      |
|-----------------------------------------------------------|
     0  2.445567005E+000  0.000000000E+000  8.588393814E-005
     1  8.672398247E-001  1.185570331E-007  4.301793849E-005
     2  5.265848984E-001  8.222293399E-007  2.414035024E-005
     3  5.044789990E-001  3.996531123E-006  2.375347853E-005
    - Density convergence    5.8110E-03

GPKDE histogram statistics 
   Max count         :   1962.0000000658465     
   Max raw density   :   1962.0000000658465     
   Min count         :   0.0000000000000000     
   Min raw density   :   0.0000000000000000     
   Mean raw density  :   848.83678992930618     


GPKDE data points statistics 
   Mean coordinates                 :   64.948533377074867        100.79374122814647       0.50000000000000000     
   Std. dev. coordinates            :   25.781245255557785        42.502470512540029        0.0000000000000000     
   Std. sigma scale                 :   33.102365719853125     
   Global smoothing scale Silverman :   2.5570432575495503     

 GPKDE compute density 
   initialSmoothing   :   2.5570432575495503        2.5570432575495503        0.0000000000000000     
 GPKDE Optimization -- Time: 9 -- Specie: 1
|-----------------------------------------------------------|
| Loop |  hHatOverLambda |     ALMISE      |      RMSE      |
|-----------------------------------------------------------|
     0  2.557043258E+000  0.000000000E+000  8.912664675E-005
     1  8.891753240E-001  1.067951699E-007  4.328125931E-005
     2  5.290870442E-001  7.689269274E-007  2.391361038E-005
     3  5.046127159E-001  3.934808182E-006  2.349813817E-005
    - Density convergence    6.1620E-03

GPKDE histogram statistics 
   Max count         :   1949.0000000654104     
   Max raw density   :   1949.0000000654104     
   Min count         :   0.0000000000000000     
   Min raw density   :   0.0000000000000000     
   Mean raw density  :   806.92611009051916     


GPKDE data points statistics 
   Mean coordinates                 :   69.025110366585821        100.67282564189169       0.50000000000000000     
   Std. dev. coordinates            :   27.839352149450999        42.763067929502519        0.0000000000000000     
   Std. sigma scale                 :   34.503566584924450     
   Global smoothing scale Silverman :   2.6652811779092533     

 GPKDE compute density 
   initialSmoothing   :   2.6652811779092533        2.6652811779092533        0.0000000000000000     
 GPKDE Optimization -- Time: 10 -- Specie: 1
|-----------------------------------------------------------|
| Loop |  hHatOverLambda |     ALMISE      |      RMSE      |
|-----------------------------------------------------------|
     0  2.665281178E+000  0.000000000E+000  8.804373851E-005
     1  9.185437696E-001  9.534174269E-008  4.541268930E-005
     2  5.343786644E-001  6.681633113E-007  2.437842198E-005
     3  5.050176555E-001  3.992885856E-006  2.388516613E-005
    - Bandwidth convergence    9.4096E-03

GPKDE histogram statistics 
   Max count         :   1967.0000000660143     
   Max raw density   :   1967.0000000660143     
   Min count         :   0.0000000000000000     
   Min raw density   :   0.0000000000000000     
   Mean raw density  :   769.21065536166088     


GPKDE data points statistics 
   Mean coordinates                 :   73.177403969896631        100.61637135564972       0.50000000000000000     
   Std. dev. coordinates            :   29.884103004678234        43.042632626911228        0.0000000000000000     
   Std. sigma scale                 :   35.864891844464545     
   Global smoothing scale Silverman :   2.7704388456632283     

 GPKDE compute density 
   initialSmoothing   :   2.7704388456632283        2.7704388456632283        0.0000000000000000     
 GPKDE Optimization -- Time: 11 -- Specie: 1
|-----------------------------------------------------------|
| Loop |  hHatOverLambda |     ALMISE      |      RMSE      |
|-----------------------------------------------------------|
     0  2.770438846E+000  0.000000000E+000  9.024422179E-005
     1  9.178556408E-001  9.110388298E-008  4.456566040E-005
     2  5.360486405E-001  6.576577547E-007  2.383926208E-005
     3  5.077690147E-001  4.233047963E-006  2.339857591E-005
    - Density convergence    7.3917E-03

GPKDE histogram statistics 
   Max count         :   1981.0000000664838     
   Max raw density   :   1981.0000000664838     
   Min count         :   0.0000000000000000     
   Min raw density   :   0.0000000000000000     
   Mean raw density  :   734.17563565091450     


GPKDE data points statistics 
   Mean coordinates                 :   77.317537705434489        100.66124174402702       0.50000000000000000     
   Std. dev. coordinates            :   31.871993615898447        43.284319306333138        0.0000000000000000     
   Std. sigma scale                 :   37.142395568944657     
   Global smoothing scale Silverman :   2.8691215897553568     

 GPKDE compute density 
   initialSmoothing   :   2.8691215897553568        2.8691215897553568        0.0000000000000000     
 GPKDE Optimization -- Time: 12 -- Specie: 1
|-----------------------------------------------------------|
| Loop |  hHatOverLambda |     ALMISE      |      RMSE      |
|-----------------------------------------------------------|
     0  2.869121590E+000  0.000000000E+000  8.709637259E-005
     1  9.484095899E-001  8.037087559E-008  4.342338079E-005
     2  5.400052698E-001  5.837261665E-007  2.284869391E-005
     3  5.080340544E-001  3.859110047E-006  2.234209851E-005
    - Density convergence    7.5045E-03

GPKDE histogram statistics 
   Max count         :   2031.0000000681607     
   Max raw density   :   2031.0000000681607     
   Min count         :   0.0000000000000000     
   Min raw density   :   0.0000000000000000     
   Mean raw density  :   703.87318680394924     


GPKDE data points statistics 
   Mean coordinates                 :   81.416720821794357        100.73795135502576       0.50000000000000000     
   Std. dev. coordinates            :   33.860393729812486        43.563174428122252        0.0000000000000000     
   Std. sigma scale                 :   38.406591078312566     
   Global smoothing scale Silverman :   2.9667763202604602     

 GPKDE compute density 
   initialSmoothing   :   2.9667763202604602        2.9667763202604602        0.0000000000000000     
 GPKDE Optimization -- Time: 13 -- Specie: 1
|-----------------------------------------------------------|
| Loop |  hHatOverLambda |     ALMISE      |      RMSE      |
|-----------------------------------------------------------|
     0  2.966776320E+000  0.000000000E+000  8.481793460E-005
     1  9.547904885E-001  7.510986549E-008  4.266128422E-005
     2  5.428084064E-001  5.605335897E-007  2.218427065E-005
     3  5.099234271E-001  3.608112727E-006  2.165690731E-005
     4  5.074182257E-001  7.248071409E-006  2.163479339E-005
    - Density convergence    6.6364E-03

GPKDE histogram statistics 
   Max count         :   1950.0000000654441     
   Max raw density   :   1950.0000000654441     
   Min count         :   0.0000000000000000     
   Min raw density   :   0.0000000000000000     
   Mean raw density  :   673.36194565922904     


GPKDE data points statistics 
   Mean coordinates                 :   85.483664594426457        100.84631619345728       0.50000000000000000     
   Std. dev. coordinates            :   35.911527558389402        43.862833987183492        0.0000000000000000     
   Std. sigma scale                 :   39.688554666550900     
   Global smoothing scale Silverman :   3.0658035734021549     

 GPKDE compute density 
   initialSmoothing   :   3.0658035734021549        3.0658035734021549        0.0000000000000000     
 GPKDE Optimization -- Time: 14 -- Specie: 1
|-----------------------------------------------------------|
| Loop |  hHatOverLambda |     ALMISE      |      RMSE      |
|-----------------------------------------------------------|
     0  3.065803573E+000  0.000000000E+000  8.567488742E-005
     1  9.597658813E-001  7.073746022E-008  4.145983309E-005
     2  5.465481771E-001  5.312728556E-007  2.131786044E-005
     3  5.124592033E-001  3.535607556E-006  2.079579242E-005
     4  5.102460739E-001  6.950213265E-006  2.076911258E-005
    - Bandwidth convergence    8.8462E-03

GPKDE histogram statistics 
   Max count         :   1944.0000000652428     
   Max raw density   :   1944.0000000652428     
   Min count         :   0.0000000000000000     
   Min raw density   :   0.0000000000000000     
   Mean raw density  :   641.16605369268916     


GPKDE data points statistics 
   Mean coordinates                 :   89.615190829442056        101.06158276654891       0.50000000000000000     
   Std. dev. coordinates            :   38.238590788259351        44.112676969329996        0.0000000000000000     
   Std. sigma scale                 :   41.070751188709494     
   Global smoothing scale Silverman :   3.1725734740039830     

 GPKDE compute density 
   initialSmoothing   :   3.1725734740039830        3.1725734740039830        0.0000000000000000     
 GPKDE Optimization -- Time: 15 -- Specie: 1
|-----------------------------------------------------------|
| Loop |  hHatOverLambda |     ALMISE      |      RMSE      |
|-----------------------------------------------------------|
     0  3.172573474E+000  0.000000000E+000  8.314363785E-005
     1  9.744464851E-001  6.166504903E-008  4.066720680E-005
     2  5.538824397E-001  4.788240517E-007  2.087838711E-005
     3  5.150195864E-001  3.385587136E-006  2.023593389E-005
     4  5.113292241E-001  6.951983752E-006  2.018033013E-005
    - Density convergence    8.6925E-03

GPKDE histogram statistics 
   Max count         :   1894.0000000635657     
   Max raw density   :   1894.0000000635657     
   Min count         :   0.0000000000000000     
   Min raw density   :   0.0000000000000000     
   Mean raw density  :   614.54497978299935     


GPKDE data points statistics 
   Mean coordinates                 :   93.817838533084554        101.24990091010169       0.50000000000000000     
   Std. dev. coordinates            :   40.846916722193377        44.419311189939940        0.0000000000000000     
   Std. sigma scale                 :   42.595679417432343     
   Global smoothing scale Silverman :   3.2903689052581342     

 GPKDE compute density 
   initialSmoothing   :   3.2903689052581342        3.2903689052581342        0.0000000000000000     
 GPKDE Optimization -- Time: 16 -- Specie: 1
|-----------------------------------------------------------|
| Loop |  hHatOverLambda |     ALMISE      |      RMSE      |
|-----------------------------------------------------------|
     0  3.290368905E+000  0.000000000E+000  8.455733611E-005
     1  9.757374787E-001  5.765361135E-008  3.995790031E-005
     2  5.566132969E-001  4.480597596E-007  2.047705582E-005
     3  5.154120590E-001  3.236581159E-006  1.979840513E-005
     4  5.127924647E-001  7.539794667E-006  1.976493613E-005
    - Density convergence    9.5076E-03

GPKDE histogram statistics 