
MODPATH-RW Version 0.0.1               
Program compiled Mar 30 2023 10:07:59 with GFORTRAN compiler (ver. 12.1.0)                

This program has been developed and published by the Hydrogeology
Group (GHS), Universitat Politècnica de Catalunya (UPC). It is free
to use and modify under the condition that neither the GHS nor UPC
shall be considered legally responsible for any wrongdoing or damages
derived from its use. The code is an extension of software originally
released by the U.S. Geological Survey (USGS), without endorsement
from this institution, explicit or implied. Their release conditions
also apply (see disclaimer below).

This software has been approved for release by the U.S. Geological
Survey (USGS). Although the software has been subjected to rigorous
review, the USGS reserves the right to update the software as needed
pursuant to further analysis and review. No warranty, expressed or
implied, is made by the USGS or the U.S. Government as to the
functionality of the software and related material nor shall the
fact of release constitute any such warranty. Furthermore, the
software is released on condition that neither the USGS nor the U.S.
Government shall be held liable for any damages resulting from its
authorized or unauthorized use. Also refer to the USGS Water
Resources Software User Rights Notice for complete use, copyright,
and distribution information.


MODPATH-RW name file data
-------------------------
   MPBAS File: mpathrw.mpbas
  GRBDIS File: mf6_model.dis.grb
    TDIS File: mf6_sim.tdis
    HEAD File: mf6_model_steady.hds
  BUDGET File: mf6_model_steady.bud
     DSP File: mpathrw.dsp
  RWOPTS File: mpathrw.rwopts
      IC File: mpathrw.ic.npx20
   GPKDE File: mpathrw.gpkde

Grid data
---------
Grid file type: MODFLOW-6 DIS binary grid file.
Time discretization file type: MODFLOW-6 time discretization file.
 # File generated by Flopy version 3.3.6 on 03/28/2023 at 09:17:49.

 Time discretization file data
 -----------------------------
 Stress period count =          1
 Period length:      100.00000 Time step count:         1 Time step multiplier:        1.00000

 The budget file was opened successfully.

 MODPATH basic data file data
 ----------------------------
 # # MPBAS package for MODPATH 7 generated by Flopy 3.3.6
 Aquifer head is set to  1.00000E+30 at cells with IDOMAIN = 0.
 Aquifer head is set to -1.00000E+30 at all dry cells when Newton-Raphson rewetting is not active.


                 POROSITY =  0.350000     FOR LAYER   1

 MODPATH-RW simulation file data
 -------------------------------
 # MPSIM package for MODPATH 7 generated by Flopy 3.3.6
RWPT with Timeseries Analysis (Simulation type = 5)
Forward tracking (Tracking direction =  1)
Stop particles when they enter weak sink cells. (Weak sink option = 2)
Let particles pass through weak source cells for backtracking simulations (Weak source option = 1)
No timeseries output, skip TimeseriesWriter (Timeseries output option = 2)
Particle groups with default mass and soluteid (ParticlesMassOption = 0)
Solutes with the same dispersion (SolutesOption= 0)
Reference time =   0.0000000E+00
Specify a limit for tracking time (Stoping time option =  3)
Stop time =   0.1501000E+03
The zone value for all cells = 1

The retardation factor for all cells = 1

Number of particle groups =     0

The simulation will be run with stoptime =   0.1501000E+03

 MODPATH-RW GPKDE file data
 --------------------------
GPKDE reconstruction is enabled
GPKDE reconstruction with kernel database
GPKDE output is requested to be expressed as resident concentration.
Porosity and retardation are spatially uniform, GPKDE output is given as concentration.

 MODPATH-RW OBS file data
 --------------------------
No observations were specified

 MODPATH-RW RWOPTS file data
 ---------------------------
RW time step will be selected with the MIN_ADV_DISP criteria.
RW advection integration is EULERIAN.
Random displacements for 2 dimensions.
Random displacements for X dimension.
Random displacements for Y dimension.

 MODPATH-RW IC file data
 -----------------------
Given number of initial conditions =     1
Processing initial condition:     1



                       IC           FOR LAYER   1
 READING ON UNIT  123 WITH FORMAT: (1000E15.6)         
Original particle mass for initial condition =   8.750000000E-004
Effective particle mass for initial condition =   7.936507937E-004
Retardation factor is unitary so total dissolved mass is the total mass.
Total accumulated mass for initial condition =   9.800000000E+002
Total number of particles for this initial condition =    1234800
Total number of particles on initial conditions =    1234800


 MODPATH-RW SRC file data
 ------------------------
SRC package was not specified in name file.

 Budget File Data
 ----------------
    Budget file type:  Unstructured grid
  Budget file format:  Compact
    Budget precision:  Double

 MODPATH-RW IMP file data
 ------------------------
IMP package was not specified in name file.

 MODPATH-RW SPC file data
 ------------------------
SPC package was not specified in name file.
ParticlesMassOption.ne.2. Will create a single solute and leave.

 MODPATH-RW DSP file data
 ------------------------
Given number of dispersion parameters/models =     1
Simulation is single dispersion, will read only first dispersion data.
Processing dispersion data:     1
Dispersion model is linear, isotropic: will read dmeff and dispersivities

           DMEFF          =   0.00000     FOR LAYER   1

          ALPHAL          =  2.000000E-02 FOR LAYER   1

         ALPHATH          =  2.000000E-03 FOR LAYER   1

 TransportModelData: verify SPC-DSP relations 
 ---------------------------------------------
Simulation is single dispersion. Is consistent.

------------------------------
 GPKDE module is initializing 
 GPKDE initializing Histogram 
   Histogram determines dimensions to be analyzed based on binSizes 
   Will compute Histogram considering            2  dimensions 
   binSize            :   1.0000000000000000        1.0000000000000000        0.0000000000000000     
   domainSize         :   1000.0000000000000        200.00000000000000        0.0000000000000000     
   domainOrigin       :   0.0000000000000000        0.0000000000000000        0.0000000000000000     
   Computed nBins     :        1000         200           1
   Dimensionality for reconstruction is determined from nBins 
   Will perform reconstruction in            2  dimensions.
 Initializing kernels database with parameters: 
  minHOverLambda         :  0.25000000000000000     
  maxHOverLambda         :   15.000000000000000     
  deltaHOverLambda       :   9.5217315400513772E-002
 Database is for kernels 2D 
 GPKDE module is initialized  
------------------------------



 Run particle tracking simulation ...

 ----------------------------------------------------------------------------------------------
 Processing Time Step     1 Period     1.  Time =  1.00000E+02  Steady-state flow                                                    
   (Cumulative step =      1)
 ----------------------------------------------------------------------------------------------

GPKDE histogram statistics 
   Max count         :   440.99999999841742     
   Max raw density   :   440.99999999841742     
   Min count         :   0.0000000000000000     
   Min raw density   :   0.0000000000000000     
   Mean raw density  :   440.99999999839349     


GPKDE data points statistics 
   Mean coordinates                 :   30.000000000000000        100.00000000000011       0.50000000000000000     
   Std. dev. coordinates            :   5.7734863270696071        40.414516505444382        0.0000000000000000     
   Std. sigma scale                 :   15.275230226065730     
   Global smoothing scale Silverman :   1.4747610575143211     

 GPKDE compute density 
   initialSmoothing   :   1.4747610575143211        1.4747610575143211        0.0000000000000000     
 GPKDE Optimization -- Time: 0 -- Specie: 1
|-----------------------------------------------------------|
| Loop |  hHatOverLambda |     ALMISE      |      RMSE      |
|-----------------------------------------------------------|
     0  1.474761058E+000  0.000000000E+000  4.730409947E-005
     1  8.823462011E-001  1.631976996E-006  3.210226350E-005
     2  6.833377120E-001  5.519296753E-006  2.202957961E-005
     3  6.090311065E-001  1.355644752E-005  1.991120429E-005
     4  6.169127915E-001  2.821095820E-005  1.960318530E-005
     5  6.065806118E-001  4.028681347E-005  1.886532818E-005
     6  6.556572715E-001  6.740982723E-005  1.983911175E-005
     7  5.946803708E-001  6.180146139E-005  1.915718120E-005
     8  6.234564742E-001  5.607967824E-005  1.897307870E-005
     9  6.616597553E-001  8.240313783E-005  2.047878176E-005
    10  5.788745209E-001  6.411746929E-005  1.950378788E-005
    11  6.129146492E-001  5.762753328E-005  1.896420564E-005
    12  6.549095034E-001  7.866748983E-005  1.898384157E-005
    13  6.558392499E-001  9.891884134E-005  2.412152512E-005
    14  5.668416934E-001  7.167554355E-005  2.098054062E-005
    15  5.828701678E-001  5.670014835E-005  1.908555802E-005
    16  6.219994564E-001  6.716503050E-005  1.891148371E-005
    17  6.514610041E-001  8.951027555E-005  2.071597665E-005
    18  5.890838809E-001  7.349543550E-005  1.902200130E-005
    19  6.389575813E-001  8.457228188E-005  1.911477839E-005
    20  6.388475716E-001  9.502491523E-005  1.962903759E-005
    - Max loops 

GPKDE histogram statistics 
   Max count         :   511.99999999816367     
   Max raw density   :   511.99999999816367     
   Min count         :   0.0000000000000000     
   Min raw density   :   0.0000000000000000     
   Mean raw density  :   373.84196185151507     


GPKDE data points statistics 
   Mean coordinates                 :   34.163017262311165        100.50469115994788       0.50000000000000000     
   Std. dev. coordinates            :   7.1511412609177274        41.025489789955301        0.0000000000000000     
   Std. sigma scale                 :   17.128312023848359     
   Global smoothing scale Silverman :   1.6536685326432454     

 GPKDE compute density 
   initialSmoothing   :   1.6536685326432454        1.6536685326432454        0.0000000000000000     
 GPKDE Optimization -- Time: 1 -- Specie: 1
|-----------------------------------------------------------|
| Loop |  hHatOverLambda |     ALMISE      |      RMSE      |
|-----------------------------------------------------------|
     0  1.653668533E+000  0.000000000E+000  5.375324687E-005
     1  9.105989430E-001  1.444404455E-006  3.654061526E-005
     2  6.637891352E-001  4.591789145E-006  2.611716501E-005
     3  5.598244643E-001  8.346919500E-006  2.176795263E-005
     4  5.445716950E-001  1.117959917E-005  2.115421950E-005
     5  5.369224784E-001  1.232050344E-005  2.099083613E-005
     6  5.369880131E-001  1.248685313E-005  2.093001031E-005
     7  5.354513497E-001  1.288204650E-005  2.090095804E-005
     8  5.359109387E-001  1.270725172E-005  2.091708134E-005
     9  5.344451024E-001  1.290328727E-005  2.088389320E-005
    10  5.358325193E-001  1.270988720E-005  2.087715955E-005
    11  5.343769878E-001  1.288680884E-005  2.090994790E-005
    - ALMISE convergence    1.2763E-05

GPKDE histogram statistics 
   Max count         :   532.99999999808870     
   Max raw density   :   532.99999999808870     
   Min count         :   0.0000000000000000     
   Min raw density   :   0.0000000000000000     
   Mean raw density  :   344.81988271308603     


GPKDE data points statistics 
   Mean coordinates                 :   38.102546363811044        101.07698738423426       0.50000000000000000     
   Std. dev. coordinates            :   9.3010878281131202        41.613193063555535        0.0000000000000000     
   Std. sigma scale                 :   19.673534595805545     
   Global smoothing scale Silverman :   1.8993993711496102     

 GPKDE compute density 
   initialSmoothing   :   1.8993993711496102        1.8993993711496102        0.0000000000000000     
 GPKDE Optimization -- Time: 2 -- Specie: 1
|-----------------------------------------------------------|
| Loop |  hHatOverLambda |     ALMISE      |      RMSE      |
|-----------------------------------------------------------|
     0  1.899399371E+000  0.000000000E+000  6.716952178E-005
     1  9.581585032E-001  1.198086473E-006  4.195954645E-005
     2  6.524519952E-001  4.227754478E-006  2.745572031E-005
     3  5.405692444E-001  8.739364740E-006  2.309051920E-005
     4  5.270055337E-001  1.273776265E-005  2.264834703E-005
     5  5.224207385E-001  1.499666114E-005  2.267018791E-005
     6  5.244895557E-001  1.620924641E-005  2.270706085E-005
     7  5.233627046E-001  1.693677684E-005  2.267280775E-005
    - ALMISE convergence    1.6907E-05

GPKDE histogram statistics 
   Max count         :   526.99999999811007     
   Max raw density   :   526.99999999811007     
   Min count         :   0.0000000000000000     
   Min raw density   :   0.0000000000000000     
   Mean raw density  :   323.83949645831729     


GPKDE data points statistics 
   Mean coordinates                 :   41.935025833226007        101.58350371015614       0.50000000000000000     
   Std. dev. coordinates            :   11.564806709154483        41.886257445639821        0.0000000000000000     
   Std. sigma scale                 :   22.009236041460124     
   Global smoothing scale Silverman :   2.1249018011001186     

 GPKDE compute density 
   initialSmoothing   :   2.1249018011001186        2.1249018011001186        0.0000000000000000     
 GPKDE Optimization -- Time: 3 -- Specie: 1
|-----------------------------------------------------------|
| Loop |  hHatOverLambda |     ALMISE      |      RMSE      |
|-----------------------------------------------------------|
     0  2.124901801E+000  0.000000000E+000  7.612548767E-005
     1  1.004321353E+000  1.004545083E-006  4.652090014E-005
     2  6.501466528E-001  3.898388124E-006  2.897690213E-005
     3  5.421125906E-001  9.698447811E-006  2.470801400E-005
     4  5.265146050E-001  1.526315767E-005  2.411035131E-005
     5  5.226443023E-001  1.884159634E-005  2.405015586E-005
     6  5.239525847E-001  2.115213301E-005  2.408505375E-005
    - Bandwidth convergence    8.6775E-03

GPKDE histogram statistics 
   Max count         :   547.99999999803504     
   Max raw density   :   547.99999999803504     
   Min count         :   0.0000000000000000     
   Min raw density   :   0.0000000000000000     
   Mean raw density  :   303.39066338957417     


GPKDE data points statistics 
   Mean coordinates                 :   45.619029997227301        101.93021713636219       0.50000000000000000     
   Std. dev. coordinates            :   13.824928532896148        41.874666571350680        0.0000000000000000     
   Std. sigma scale                 :   24.060637412333417     
   Global smoothing scale Silverman :   2.3229562205963954     

 GPKDE compute density 
   initialSmoothing   :   2.3229562205963954        2.3229562205963954        0.0000000000000000     
 GPKDE Optimization -- Time: 4 -- Specie: 1
|-----------------------------------------------------------|
| Loop |  hHatOverLambda |     ALMISE      |      RMSE      |
|-----------------------------------------------------------|
     0  2.322956221E+000  0.000000000E+000  8.102283416E-005
     1  1.031941900E+000  8.767087877E-007  4.828271036E-005
     2  6.462994705E-001  3.647643910E-006  2.946876381E-005
     3  5.454477968E-001  9.787610725E-006  2.523520623E-005
     4  5.290588422E-001  1.762605678E-005  2.478858858E-005
     5  5.254061834E-001  2.510093886E-005  2.470063337E-005
     6  5.260634814E-001  3.094131367E-005  2.470914369E-005
    - Bandwidth convergence    8.2717E-03

GPKDE histogram statistics 
   Max count         :   550.99999999802435     
   Max raw density   :   550.99999999802435     
   Min count         :   0.0000000000000000     
   Min raw density   :   0.0000000000000000     
   Mean raw density  :   287.36327670364682     


GPKDE data points statistics 
   Mean coordinates                 :   49.374871381613346        102.12427488936949       0.50000000000000000     
   Std. dev. coordinates            :   16.307497173041437        41.783051986715193        0.0000000000000000     
   Std. sigma scale                 :   26.103199078932864     
   Global smoothing scale Silverman :   2.5201572027676642     

 GPKDE compute density 
   initialSmoothing   :   2.5201572027676642        2.5201572027676642        0.0000000000000000     
 GPKDE Optimization -- Time: 5 -- Specie: 1
|-----------------------------------------------------------|
| Loop |  hHatOverLambda |     ALMISE      |      RMSE      |
|-----------------------------------------------------------|
     0  2.520157203E+000  0.000000000E+000  8.716034541E-005
     1  1.066947100E+000  7.542156904E-007  5.114619302E-005
     2  6.463042375E-001  3.316395944E-006  3.024938176E-005
     3  5.463624110E-001  9.561072694E-006  2.594353962E-005
     4  5.305732389E-001  1.720205059E-005  2.554670579E-005
     5  5.283293194E-001  2.539351093E-005  2.552194768E-005
    - Bandwidth convergence    8.6608E-03

GPKDE histogram statistics 
   Max count         :   549.99999999802787     
   Max raw density   :   549.99999999802787     
   Min count         :   0.0000000000000000     
   Min raw density   :   0.0000000000000000     
   Mean raw density  :   271.38461538364089     


GPKDE data points statistics 
   Mean coordinates                 :   53.214109012890063        101.91511398749670       0.50000000000000000     
   Std. dev. coordinates            :   18.843487594573290        41.838782764735697        0.0000000000000000     
   Std. sigma scale                 :   28.078258208075226     
   Global smoothing scale Silverman :   2.7108410907903133     

 GPKDE compute density 
   initialSmoothing   :   2.7108410907903133        2.7108410907903133        0.0000000000000000     
 GPKDE Optimization -- Time: 6 -- Specie: 1
|-----------------------------------------------------------|
| Loop |  hHatOverLambda |     ALMISE      |      RMSE      |
|-----------------------------------------------------------|
     0  2.710841091E+000  0.000000000E+000  9.456642201E-005
     1  1.112160642E+000  6.452746764E-007  5.271238486E-005
     2  6.431507456E-001  3.029581714E-006  2.949005097E-005
     3  5.462747830E-001  9.995133301E-006  2.553628820E-005
     4  5.318330060E-001  1.901964805E-005  2.517449465E-005
     5  5.295097064E-001  3.193568167E-005  2.508627676E-005
    - Bandwidth convergence    7.5621E-03

GPKDE histogram statistics 
   Max count         :   526.99999999811007     
   Max raw density   :   526.99999999811007     
   Min count         :   0.0000000000000000     
   Min raw density   :   0.0000000000000000     
   Mean raw density  :   257.24999999907715     


GPKDE data points statistics 
   Mean coordinates                 :   57.096452902836724        101.45982060373714       0.50000000000000000     
   Std. dev. coordinates            :   21.367481481387156        42.025446911578179        0.0000000000000000     
   Std. sigma scale                 :   29.966280360267699     
   Global smoothing scale Silverman :   2.8931219143569886     

 GPKDE compute density 
   initialSmoothing   :   2.8931219143569886        2.8931219143569886        0.0000000000000000     
 GPKDE Optimization -- Time: 7 -- Specie: 1
|-----------------------------------------------------------|
| Loop |  hHatOverLambda |     ALMISE      |      RMSE      |
|-----------------------------------------------------------|
     0  2.893121914E+000  0.000000000E+000  9.647510572E-005
     1  1.145743533E+000  5.708795280E-007  5.578446942E-005
     2  6.519409483E-001  2.748778012E-006  3.028097892E-005
     3  5.489235634E-001  9.965098465E-006  2.581073996E-005
     4  5.351151935E-001  1.865169529E-005  2.541962914E-005
     5  5.320279239E-001  2.700446042E-005  2.538625920E-005
    - Bandwidth convergence    8.2092E-03

GPKDE histogram statistics 
   Max count         :   533.99999999808506     
   Max raw density   :   533.99999999808506     
   Min count         :   0.0000000000000000     
   Min raw density   :   0.0000000000000000     
   Mean raw density  :   245.48707753391085     


GPKDE data points statistics 
   Mean coordinates                 :   61.010405175895798        101.03990110612646       0.50000000000000000     
   Std. dev. coordinates            :   23.717986512335575        42.255235548845413        0.0000000000000000     
   Std. sigma scale                 :   31.657686378241195     
   Global smoothing scale Silverman :   3.0564202536184282     

 GPKDE compute density 
   initialSmoothing   :   3.0564202536184282        3.0564202536184282        0.0000000000000000     
 GPKDE Optimization -- Time: 8 -- Specie: 1
|-----------------------------------------------------------|
| Loop |  hHatOverLambda |     ALMISE      |      RMSE      |
|-----------------------------------------------------------|
     0  3.056420254E+000  0.000000000E+000  1.007613628E-004
     1  1.208775878E+000  4.730397327E-007  5.795648781E-005
     2  6.599264203E-001  2.456119038E-006  3.046747053E-005
     3  5.505795483E-001  9.370857297E-006  2.567558636E-005
     4  5.343164358E-001  1.819170088E-005  2.527116793E-005
     5  5.312599206E-001  2.852415765E-005  2.522501106E-005
    - Bandwidth convergence    6.8171E-03

GPKDE histogram statistics 
   Max count         :   530.99999999809575     
   Max raw density   :   530.99999999809575     
   Min count         :   0.0000000000000000     
   Min raw density   :   0.0000000000000000     
   Mean raw density  :   233.90793710846322     


GPKDE data points statistics 
   Mean coordinates                 :   64.951368126086365        100.79048798149159       0.50000000000000000     
   Std. dev. coordinates            :   25.781015549147671        42.500592955837725        0.0000000000000000     
   Std. sigma scale                 :   33.101487094123861     
   Global smoothing scale Silverman :   3.1958133127791126     

 GPKDE compute density 
   initialSmoothing   :   3.1958133127791126        3.1958133127791126        0.0000000000000000     
 GPKDE Optimization -- Time: 9 -- Specie: 1
|-----------------------------------------------------------|
| Loop |  hHatOverLambda |     ALMISE      |      RMSE      |
|-----------------------------------------------------------|
     0  3.195813313E+000  0.000000000E+000  9.979166723E-005
     1  1.210806672E+000  4.459101504E-007  5.769931371E-005
     2  6.589650319E-001  2.384227859E-006  3.044698204E-005
     3  5.506230886E-001  9.270898069E-006  2.559257874E-005
     4  5.342133585E-001  1.929267904E-005  2.515850943E-005
     5  5.309310916E-001  4.033570082E-005  2.510670380E-005
    - Bandwidth convergence    9.0612E-03

GPKDE histogram statistics 
   Max count         :   539.99999999806369     
   Max raw density   :   539.99999999806369     
   Min count         :   0.0000000000000000     
   Min raw density   :   0.0000000000000000     
   Mean raw density  :   223.12974340360972     


GPKDE data points statistics 
   Mean coordinates                 :   69.029742764685039        100.67031915615307       0.50000000000000000     
   Std. dev. coordinates            :   27.840865984709492        42.762416521948879        0.0000000000000000     
   Std. sigma scale                 :   34.504241877918517     
   Global smoothing scale Silverman :   3.3312435549270965     

 GPKDE compute density 
   initialSmoothing   :   3.3312435549270965        3.3312435549270965        0.0000000000000000     
 GPKDE Optimization -- Time: 10 -- Specie: 1
|-----------------------------------------------------------|
| Loop |  hHatOverLambda |     ALMISE      |      RMSE      |
|-----------------------------------------------------------|
     0  3.331243555E+000  0.000000000E+000  1.024494407E-004
     1  1.244495868E+000  3.843770432E-007  5.875872491E-005
     2  6.712331381E-001  2.140566159E-006  3.128660799E-005
     3  5.551435672E-001  9.263130156E-006  2.593388835E-005
     4  5.377850550E-001  1.936006567E-005  2.550702675E-005
     5  5.349633263E-001  3.261056958E-005  2.544572349E-005
    - Bandwidth convergence    8.1111E-03

GPKDE histogram statistics 
   Max count         :   555.99999999800650     
   Max raw density   :   555.99999999800650     
   Min count         :   0.0000000000000000     
   Min raw density   :   0.0000000000000000     
   Mean raw density  :   212.49354672097340     


GPKDE data points statistics 
   Mean coordinates                 :   73.184103433153155        100.61415388402143       0.50000000000000000     
   Std. dev. coordinates            :   29.886244489162042        43.041162310784749        0.0000000000000000     
   Std. sigma scale                 :   35.865564263201264     
   Global smoothing scale Silverman :   3.4626736683084109     

 GPKDE compute density 
   initialSmoothing   :   3.4626736683084109        3.4626736683084109        0.0000000000000000     
 GPKDE Optimization -- Time: 11 -- Specie: 1
|-----------------------------------------------------------|
| Loop |  hHatOverLambda |     ALMISE      |      RMSE      |
|-----------------------------------------------------------|
     0  3.462673668E+000  0.000000000E+000  1.000017699E-004
     1  1.233145061E+000  3.636662535E-007  5.757942707E-005
     2  6.716180410E-001  2.066642697E-006  3.035637366E-005
     3  5.595519741E-001  9.665246972E-006  2.550478283E-005
     4  5.419404562E-001  2.377332971E-005  2.511773643E-005
     5  5.386954397E-001  4.576174643E-005  2.506391137E-005
     6  5.381618496E-001  6.944712977E-005  2.505160027E-005
     7  5.376039671E-001  9.567236282E-005  2.504915359E-005
    - Bandwidth convergence    9.9002E-03

GPKDE histogram statistics 
   Max count         :   572.99999999794557     
   Max raw density   :   572.99999999794557     
   Min count         :   0.0000000000000000     
   Min raw density   :   0.0000000000000000     
   Mean raw density  :   203.72875763002440     


GPKDE data points statistics 
   Mean coordinates                 :   77.325284201092558        100.65943846032484       0.50000000000000000     
   Std. dev. coordinates            :   31.873033765635288        43.283344319331270        0.0000000000000000     
   Std. sigma scale                 :   37.142583310530028     
   Global smoothing scale Silverman :   3.5859646389080440     

 GPKDE compute density 
   initialSmoothing   :   3.5859646389080440        3.5859646389080440        0.0000000000000000     
 GPKDE Optimization -- Time: 12 -- Specie: 1
|-----------------------------------------------------------|
| Loop |  hHatOverLambda |     ALMISE      |      RMSE      |
|-----------------------------------------------------------|
     0  3.585964639E+000  0.000000000E+000  9.675319928E-005
     1  1.222760800E+000  3.429542961E-007  5.480103157E-005
     2  6.695128889E-001  2.013273030E-006  2.869944774E-005
     3  5.590247256E-001  9.331830649E-006  2.430307847E-005
     4  5.418998564E-001  2.200158593E-005  2.393354646E-005
     5  5.388150492E-001  4.396819302E-005  2.390156000E-005
    - Bandwidth convergence    9.9930E-03

GPKDE histogram statistics 
   Max count         :   537.99999999807073     
   Max raw density   :   537.99999999807073     
   Min count         :   0.0000000000000000     
   Min raw density   :   0.0000000000000000     
   Mean raw density  :   195.59638840417790     


GPKDE data points statistics 
   Mean coordinates                 :   81.427084209751214        100.73616089306014       0.50000000000000000     
   Std. dev. coordinates            :   33.863337829702800        43.562815107699613        0.0000000000000000     
   Std. sigma scale                 :   38.408102332774952     
   Global smoothing scale Silverman :   3.7081453290796191     

 GPKDE compute density 
   initialSmoothing   :   3.7081453290796191        3.7081453290796191        0.0000000000000000     
 GPKDE Optimization -- Time: 13 -- Specie: 1
|-----------------------------------------------------------|
| Loop |  hHatOverLambda |     ALMISE      |      RMSE      |
|-----------------------------------------------------------|
     0  3.708145329E+000  0.000000000E+000  9.819401292E-005
     1  1.250488455E+000  3.012566847E-007  5.414083002E-005
     2  6.792486073E-001  1.848738835E-006  2.853611179E-005
     3  5.658894837E-001  9.046078513E-006  2.373625139E-005
     4  5.458896381E-001  2.029960988E-005  2.330125167E-005
     5  5.424676962E-001  3.839136137E-005  2.325819359E-005
     6  5.404545731E-001  6.105251879E-005  2.320556094E-005
     7  5.414902237E-001  8.857933728E-005  2.323595307E-005
    - Bandwidth convergence    8.2828E-03

GPKDE histogram statistics 
   Max count         :   565.99999999797069     
   Max raw density   :   565.99999999797069     
   Min count         :   0.0000000000000000     
   Min raw density   :   0.0000000000000000     
   Mean raw density  :   186.92098092576126     


GPKDE data points statistics 
   Mean coordinates                 :   85.493810980770448        100.84299396889175       0.50000000000000000     
   Std. dev. coordinates            :   35.912595534234882        43.861939199912882        0.0000000000000000     
   Std. sigma scale                 :   39.688739987982402     
   Global smoothing scale Silverman :   3.8317856614828338     

 GPKDE compute density 
   initialSmoothing   :   3.8317856614828338        3.8317856614828338        0.0000000000000000     
 GPKDE Optimization -- Time: 14 -- Specie: 1
|-----------------------------------------------------------|
| Loop |  hHatOverLambda |     ALMISE      |      RMSE      |
|-----------------------------------------------------------|