
MODPATH-RW Version 0.0.1               
Program compiled Mar 30 2023 10:07:59 with GFORTRAN compiler (ver. 12.1.0)                

This program has been developed and published by the Hydrogeology
Group (GHS), Universitat Politècnica de Catalunya (UPC). It is free
to use and modify under the condition that neither the GHS nor UPC
shall be considered legally responsible for any wrongdoing or damages
derived from its use. The code is an extension of software originally
released by the U.S. Geological Survey (USGS), without endorsement
from this institution, explicit or implied. Their release conditions
also apply (see disclaimer below).

This software has been approved for release by the U.S. Geological
Survey (USGS). Although the software has been subjected to rigorous
review, the USGS reserves the right to update the software as needed
pursuant to further analysis and review. No warranty, expressed or
implied, is made by the USGS or the U.S. Government as to the
functionality of the software and related material nor shall the
fact of release constitute any such warranty. Furthermore, the
software is released on condition that neither the USGS nor the U.S.
Government shall be held liable for any damages resulting from its
authorized or unauthorized use. Also refer to the USGS Water
Resources Software User Rights Notice for complete use, copyright,
and distribution information.


MODPATH-RW name file data
-------------------------
   MPBAS File: mpathrw.mpbas
  GRBDIS File: mf6_model.dis.grb
    TDIS File: mf6_sim.tdis
    HEAD File: mf6_model_steady.hds
  BUDGET File: mf6_model_steady.bud
     DSP File: mpathrw.dsp
  RWOPTS File: mpathrw.rwopts
      IC File: mpathrw.ic.npx15
   GPKDE File: mpathrw.gpkde

Grid data
---------
Grid file type: MODFLOW-6 DIS binary grid file.
Time discretization file type: MODFLOW-6 time discretization file.
 # File generated by Flopy version 3.3.6 on 03/28/2023 at 09:17:49.

 Time discretization file data
 -----------------------------
 Stress period count =          1
 Period length:      100.00000 Time step count:         1 Time step multiplier:        1.00000

 The budget file was opened successfully.

 MODPATH basic data file data
 ----------------------------
 # # MPBAS package for MODPATH 7 generated by Flopy 3.3.6
 Aquifer head is set to  1.00000E+30 at cells with IDOMAIN = 0.
 Aquifer head is set to -1.00000E+30 at all dry cells when Newton-Raphson rewetting is not active.


                 POROSITY =  0.350000     FOR LAYER   1

 MODPATH-RW simulation file data
 -------------------------------
 # MPSIM package for MODPATH 7 generated by Flopy 3.3.6
RWPT with Timeseries Analysis (Simulation type = 5)
Forward tracking (Tracking direction =  1)
Stop particles when they enter weak sink cells. (Weak sink option = 2)
Let particles pass through weak source cells for backtracking simulations (Weak source option = 1)
No timeseries output, skip TimeseriesWriter (Timeseries output option = 2)
Particle groups with default mass and soluteid (ParticlesMassOption = 0)
Solutes with the same dispersion (SolutesOption= 0)
Reference time =   0.0000000E+00
Specify a limit for tracking time (Stoping time option =  3)
Stop time =   0.1501000E+03
The zone value for all cells = 1

The retardation factor for all cells = 1

Number of particle groups =     0

The simulation will be run with stoptime =   0.1501000E+03

 MODPATH-RW GPKDE file data
 --------------------------
GPKDE reconstruction is enabled
GPKDE reconstruction with kernel database
GPKDE output is requested to be expressed as resident concentration.
Porosity and retardation are spatially uniform, GPKDE output is given as concentration.

 MODPATH-RW OBS file data
 --------------------------
No observations were specified

 MODPATH-RW RWOPTS file data
 ---------------------------
RW time step will be selected with the MIN_ADV_DISP criteria.
RW advection integration is EULERIAN.
Random displacements for 2 dimensions.
Random displacements for X dimension.
Random displacements for Y dimension.

 MODPATH-RW IC file data
 -----------------------
Given number of initial conditions =     1
Processing initial condition:     1



                       IC           FOR LAYER   1
 READING ON UNIT  123 WITH FORMAT: (1000E15.6)         
Original particle mass for initial condition =   1.555500000E-003
Effective particle mass for initial condition =   1.367187500E-003
Retardation factor is unitary so total dissolved mass is the total mass.
Total accumulated mass for initial condition =   9.800000000E+002
Total number of particles for this initial condition =     716800
Total number of particles on initial conditions =     716800


 MODPATH-RW SRC file data
 ------------------------
SRC package was not specified in name file.

 Budget File Data
 ----------------
    Budget file type:  Unstructured grid
  Budget file format:  Compact
    Budget precision:  Double

 MODPATH-RW IMP file data
 ------------------------
IMP package was not specified in name file.

 MODPATH-RW SPC file data
 ------------------------
SPC package was not specified in name file.
ParticlesMassOption.ne.2. Will create a single solute and leave.

 MODPATH-RW DSP file data
 ------------------------
Given number of dispersion parameters/models =     1
Simulation is single dispersion, will read only first dispersion data.
Processing dispersion data:     1
Dispersion model is linear, isotropic: will read dmeff and dispersivities

           DMEFF          =   0.00000     FOR LAYER   1

          ALPHAL          =  2.000000E-02 FOR LAYER   1

         ALPHATH          =  2.000000E-03 FOR LAYER   1

 TransportModelData: verify SPC-DSP relations 
 ---------------------------------------------
Simulation is single dispersion. Is consistent.

------------------------------
 GPKDE module is initializing 
 GPKDE initializing Histogram 
   Histogram determines dimensions to be analyzed based on binSizes 
   Will compute Histogram considering            2  dimensions 
   binSize            :   1.0000000000000000        1.0000000000000000        0.0000000000000000     
   domainSize         :   1000.0000000000000        200.00000000000000        0.0000000000000000     
   domainOrigin       :   0.0000000000000000        0.0000000000000000        0.0000000000000000     
   Computed nBins     :        1000         200           1
   Dimensionality for reconstruction is determined from nBins 
   Will perform reconstruction in            2  dimensions.
 Initializing kernels database with parameters: 
  minHOverLambda         :  0.25000000000000000     
  maxHOverLambda         :   15.000000000000000     
  deltaHOverLambda       :   9.5217315400513772E-002
 Database is for kernels 2D 
 GPKDE module is initialized  
------------------------------



 Run particle tracking simulation ...

 ----------------------------------------------------------------------------------------------
 Processing Time Step     1 Period     1.  Time =  1.00000E+02  Steady-state flow                                                    
   (Cumulative step =      1)
 ----------------------------------------------------------------------------------------------

GPKDE histogram statistics 
   Max count         :   256.00000000093814     
   Max raw density   :   256.00000000093814     
   Min count         :   0.0000000000000000     
   Min raw density   :   0.0000000000000000     
   Mean raw density  :   256.00000000093200     


GPKDE data points statistics 
   Mean coordinates                 :   30.000000000000000        100.00000000000000       0.50000000000000000     
   Std. dev. coordinates            :   5.7734745008963193        40.414514815997727        0.0000000000000000     
   Std. sigma scale                 :   15.275214262204619     
   Global smoothing scale Silverman :   1.6146843820493710     

 GPKDE compute density 
   initialSmoothing   :   1.6146843820493710        1.6146843820493710        0.0000000000000000     
 GPKDE Optimization -- Time: 0 -- Specie: 1
|-----------------------------------------------------------|
| Loop |  hHatOverLambda |     ALMISE      |      RMSE      |
|-----------------------------------------------------------|
     0  1.614684382E+000  0.000000000E+000  4.999966431E-005
     1  1.004548071E+000  8.096219814E-009  3.538964891E-005
     2  7.558288014E-001  2.605627162E-008  2.457392197E-005
     3  6.604341403E-001  6.079887802E-008  2.147513384E-005
     4  6.508799940E-001  1.301825264E-007  1.902872317E-005
     5  6.654588603E-001  1.866038064E-007  1.892988251E-005
     6  6.978669567E-001  3.523901354E-007  1.913460925E-005
     7  6.443106245E-001  3.150990506E-007  2.354955708E-005
     8  6.023354009E-001  2.313834785E-007  1.925209806E-005
     9  6.465691050E-001  2.653463591E-007  1.923809855E-005
    10  6.669291074E-001  2.960220318E-007  1.901236765E-005
    11  6.912018396E-001  3.594899301E-007  1.951862707E-005
    12  6.507099516E-001  3.297769830E-007  2.080874592E-005
    13  6.242211735E-001  2.412724856E-007  1.910049847E-005
    14  6.728934784E-001  2.946889210E-007  1.942084291E-005
    15  6.737773059E-001  3.707562808E-007  1.893682523E-005
    16  6.792539554E-001  3.745562218E-007  2.055966820E-005
    17  6.050791739E-001  2.245037963E-007  1.940045170E-005
    18  6.608978739E-001  2.312815685E-007  1.897454574E-005
    19  7.053170049E-001  3.534727479E-007  1.940978746E-005
    20  6.340572581E-001  2.845359674E-007  2.476806325E-005
    - Max loops 

GPKDE histogram statistics 
   Max count         :   308.00000000112857     
   Max raw density   :   308.00000000112857     
   Min count         :   0.0000000000000000     
   Min raw density   :   0.0000000000000000     
   Mean raw density  :   218.46997866584027     


GPKDE data points statistics 
   Mean coordinates                 :   34.163441811095630        100.50509561269847       0.50000000000000000     
   Std. dev. coordinates            :   7.1510629802209555        41.025416838389852        0.0000000000000000     
   Std. sigma scale                 :   17.128203046471135     
   Global smoothing scale Silverman :   1.8105567278449297     

 GPKDE compute density 
   initialSmoothing   :   1.8105567278449297        1.8105567278449297        0.0000000000000000     
 GPKDE Optimization -- Time: 1 -- Specie: 1
|-----------------------------------------------------------|
| Loop |  hHatOverLambda |     ALMISE      |      RMSE      |
|-----------------------------------------------------------|
     0  1.810556728E+000  0.000000000E+000  5.704023233E-005
     1  1.035284573E+000  7.160269905E-009  4.094250997E-005
     2  7.597515900E-001  2.195423338E-008  3.029103083E-005
     3  6.197413490E-001  3.824614959E-008  2.471088964E-005
     4  5.844538709E-001  5.270390374E-008  2.286867371E-005
     5  5.669827506E-001  6.025153008E-008  2.234973343E-005
     6  5.660485811E-001  6.297615006E-008  2.222773114E-005
     7  5.613058195E-001  6.439718263E-008  2.204466838E-005
     8  5.612424759E-001  6.505146491E-008  2.210542645E-005
    - ALMISE convergence    6.4796E-08

GPKDE histogram statistics 
   Max count         :   310.00000000113590     
   Max raw density   :   310.00000000113590     
   Min count         :   0.0000000000000000     
   Min raw density   :   0.0000000000000000     
   Mean raw density  :   202.20028208818661     


GPKDE data points statistics 
   Mean coordinates                 :   38.102580437498553        101.07658076292699       0.50000000000000000     
   Std. dev. coordinates            :   9.3012680040874400        41.612824990399766        0.0000000000000000     
   Std. sigma scale                 :   19.673638139472210     
   Global smoothing scale Silverman :   2.0796249202537758     

 GPKDE compute density 
   initialSmoothing   :   2.0796249202537758        2.0796249202537758        0.0000000000000000     
 GPKDE Optimization -- Time: 2 -- Specie: 1
|-----------------------------------------------------------|
| Loop |  hHatOverLambda |     ALMISE      |      RMSE      |
|-----------------------------------------------------------|
     0  2.079624920E+000  0.000000000E+000  7.132785876E-005
     1  1.076460453E+000  6.115806026E-009  4.705558247E-005
     2  7.501071206E-001  2.020430710E-008  3.274085936E-005
     3  5.986109807E-001  3.822731556E-008  2.598493334E-005
     4  5.597948553E-001  5.905382400E-008  2.436519472E-005
     5  5.456957474E-001  7.039435488E-008  2.400515085E-005
     6  5.449513096E-001  7.534196951E-008  2.389418785E-005
     7  5.436691306E-001  7.872230215E-008  2.397424684E-005
     8  5.445968777E-001  8.148041389E-008  2.395272954E-005
     9  5.445143022E-001  8.386130104E-008  2.399460239E-005
    10  5.446085284E-001  8.551925132E-008  2.398215199E-005
    - ALMISE convergence    8.5326E-08

GPKDE histogram statistics 
   Max count         :   318.00000000116518     
   Max raw density   :   318.00000000116518     
   Min count         :   0.0000000000000000     
   Min raw density   :   0.0000000000000000     
   Mean raw density  :   190.89214380895461     


GPKDE data points statistics 
   Mean coordinates                 :   41.935095130870927        101.58250085829094       0.50000000000000000     
   Std. dev. coordinates            :   11.563137565308249        41.886121974136998        0.0000000000000000     
   Std. sigma scale                 :   22.007612102729976     
   Global smoothing scale Silverman :   2.3263403667209910     

 GPKDE compute density 
   initialSmoothing   :   2.3263403667209910        2.3263403667209910        0.0000000000000000     
 GPKDE Optimization -- Time: 3 -- Specie: 1
|-----------------------------------------------------------|
| Loop |  hHatOverLambda |     ALMISE      |      RMSE      |
|-----------------------------------------------------------|
     0  2.326340367E+000  0.000000000E+000  7.990337600E-005
     1  1.132479178E+000  5.068036527E-009  5.131647828E-005
     2  7.511524155E-001  1.827923454E-008  3.455581294E-005
     3  5.985566516E-001  4.003525329E-008  2.743081105E-005
     4  5.590843950E-001  6.848389250E-008  2.569253840E-005
     5  5.467972231E-001  8.723654994E-008  2.534335455E-005
     6  5.463797353E-001  9.999389459E-008  2.537972316E-005
     7  5.458864271E-001  1.056832136E-007  2.540047113E-005
     8  5.460167653E-001  1.094018205E-007  2.534057009E-005
    - Bandwidth convergence    9.6837E-03

GPKDE histogram statistics 
   Max count         :   318.00000000116518     
   Max raw density   :   318.00000000116518     
   Min count         :   0.0000000000000000     
   Min raw density   :   0.0000000000000000     
   Mean raw density  :   179.37937938003586     


GPKDE data points statistics 
   Mean coordinates                 :   45.619661391876292        101.92998125682186       0.50000000000000000     
   Std. dev. coordinates            :   13.823334096331857        41.874981701533351        0.0000000000000000     
   Std. sigma scale                 :   24.059340438550649     
   Global smoothing scale Silverman :   2.5432207091627248     

 GPKDE compute density 
   initialSmoothing   :   2.5432207091627248        2.5432207091627248        0.0000000000000000     
 GPKDE Optimization -- Time: 4 -- Specie: 1
|-----------------------------------------------------------|
| Loop |  hHatOverLambda |     ALMISE      |      RMSE      |
|-----------------------------------------------------------|
     0  2.543220709E+000  0.000000000E+000  8.557312056E-005
     1  1.167174526E+000  4.400453606E-009  5.356661481E-005
     2  7.374677018E-001  1.733794759E-008  3.453848623E-005
     3  5.937880512E-001  4.236083168E-008  2.755629742E-005
     4  5.594679582E-001  7.900227289E-008  2.629588157E-005
     5  5.488076510E-001  1.126025099E-007  2.598250558E-005
     6  5.473828001E-001  1.419025817E-007  2.601054530E-005
     7  5.469772549E-001  1.629149236E-007  2.600618810E-005
     8  5.472806000E-001  1.759414091E-007  2.594673105E-005
     9  5.468253701E-001  1.848037464E-007  2.598342299E-005
    10  5.469397175E-001  1.927240128E-007  2.598288090E-005
    11  5.469905814E-001  1.976440128E-007  2.597723643E-005
    12  5.470052280E-001  2.015025536E-007  2.594968849E-005
    - ALMISE convergence    2.0247E-07

GPKDE histogram statistics 
   Max count         :   320.00000000117251     
   Max raw density   :   320.00000000117251     
   Min count         :   0.0000000000000000     
   Min raw density   :   0.0000000000000000     
   Mean raw density  :   169.77735670360539     


GPKDE data points statistics 
   Mean coordinates                 :   49.374912097471366        102.12395671989557       0.50000000000000000     
   Std. dev. coordinates            :   16.304566647445583        41.783525547150155        0.0000000000000000     
   Std. sigma scale                 :   26.101001456816842     
   Global smoothing scale Silverman :   2.7590368740325224     

 GPKDE compute density 
   initialSmoothing   :   2.7590368740325224        2.7590368740325224        0.0000000000000000     
 GPKDE Optimization -- Time: 5 -- Specie: 1
|-----------------------------------------------------------|
| Loop |  hHatOverLambda |     ALMISE      |      RMSE      |
|-----------------------------------------------------------|
     0  2.759036874E+000  0.000000000E+000  9.211810528E-005
     1  1.206620899E+000  3.803826843E-009  5.635109733E-005
     2  7.393274290E-001  1.574809943E-008  3.604540717E-005
     3  5.912322198E-001  4.010708045E-008  2.860035676E-005
     4  5.586109994E-001  7.460452539E-008  2.730331813E-005
     5  5.495392410E-001  1.085670332E-007  2.703514574E-005
     6  5.490048961E-001  1.388402398E-007  2.702039542E-005
     7  5.485043049E-001  1.725557657E-007  2.699202364E-005
     8  5.490626232E-001  1.983164643E-007  2.704224634E-005
     9  5.488343678E-001  2.079591747E-007  2.699331052E-005
    10  5.488026647E-001  2.165661528E-007  2.703752103E-005
    - Bandwidth convergence    9.8596E-03

GPKDE histogram statistics 
   Max count         :   336.00000000123157     
   Max raw density   :   336.00000000123157     
   Min count         :   0.0000000000000000     
   Min raw density   :   0.0000000000000000     
   Mean raw density  :   161.07865168598269     


GPKDE data points statistics 
   Mean coordinates                 :   53.212292020943728        101.91581293714411       0.50000000000000000     
   Std. dev. coordinates            :   18.841166765407738        41.839552460428763        0.0000000000000000     
   Std. sigma scale                 :   28.076787303695628     
   Global smoothing scale Silverman :   2.9678896268952455     

 GPKDE compute density 
   initialSmoothing   :   2.9678896268952455        2.9678896268952455        0.0000000000000000     
 GPKDE Optimization -- Time: 6 -- Specie: 1
|-----------------------------------------------------------|
| Loop |  hHatOverLambda |     ALMISE      |      RMSE      |
|-----------------------------------------------------------|
     0  2.967889627E+000  0.000000000E+000  9.553319432E-005
     1  1.247299032E+000  3.319491545E-009  5.893988906E-005
     2  7.326187472E-001  1.469454058E-008  3.520824584E-005
     3  5.862149903E-001  4.291682633E-008  2.778701885E-005
     4  5.565574339E-001  8.411710668E-008  2.674232436E-005
     5  5.501365037E-001  1.461960695E-007  2.658379479E-005
     6  5.482760627E-001  2.139424718E-007  2.657664984E-005
    - Bandwidth convergence    7.6480E-03

GPKDE histogram statistics 
   Max count         :   335.00000000122787     
   Max raw density   :   335.00000000122787     
   Min count         :   0.0000000000000000     
   Min raw density   :   0.0000000000000000     
   Mean raw density  :   153.32620320911698     


GPKDE data points statistics 
   Mean coordinates                 :   57.094236592674591        101.46170346791068       0.50000000000000000     
   Std. dev. coordinates            :   21.364019552689584        42.027927689963661        0.0000000000000000     
   Std. sigma scale                 :   29.964737090910837     
   Global smoothing scale Silverman :   3.1674575663808850     

 GPKDE compute density 
   initialSmoothing   :   3.1674575663808850        3.1674575663808850        0.0000000000000000     
 GPKDE Optimization -- Time: 7 -- Specie: 1
|-----------------------------------------------------------|
| Loop |  hHatOverLambda |     ALMISE      |      RMSE      |
|-----------------------------------------------------------|
     0  3.167457566E+000  0.000000000E+000  1.017075137E-004
     1  1.316578211E+000  2.735407664E-009  6.240904957E-005
     2  7.529641069E-001  1.256740607E-008  3.666261582E-005
     3  5.912539033E-001  3.982782098E-008  2.825653394E-005
     4  5.601400509E-001  7.689459880E-008  2.707552611E-005
     5  5.536763668E-001  1.119545554E-007  2.690919400E-005
     6  5.514636405E-001  1.437141678E-007  2.687218223E-005
    - Bandwidth convergence    7.5783E-03

GPKDE histogram statistics 
   Max count         :   323.00000000118354     
   Max raw density   :   323.00000000118354     
   Min count         :   0.0000000000000000     
   Min raw density   :   0.0000000000000000     
   Mean raw density  :   145.92833876274901     


GPKDE data points statistics 
   Mean coordinates                 :   61.009955616181280        101.04209981453171       0.50000000000000000     
   Std. dev. coordinates            :   23.717587562385209        42.258678156181382        0.0000000000000000     
   Std. sigma scale                 :   31.658709693224818     
   Global smoothing scale Silverman :   3.3465209207551463     

 GPKDE compute density 
   initialSmoothing   :   3.3465209207551463        3.3465209207551463        0.0000000000000000     
 GPKDE Optimization -- Time: 8 -- Specie: 1
|-----------------------------------------------------------|
| Loop |  hHatOverLambda |     ALMISE      |      RMSE      |
|-----------------------------------------------------------|
     0  3.346520921E+000  0.000000000E+000  1.065767722E-004
     1  1.359746889E+000  2.358394397E-009  6.424965946E-005
     2  7.563918384E-001  1.170289696E-008  3.681205001E-005
     3  5.913784418E-001  3.855417941E-008  2.833714544E-005
     4  5.598773597E-001  8.174862478E-008  2.707904507E-005
     5  5.532806691E-001  1.253570983E-007  2.693979270E-005
    - Bandwidth convergence    8.9641E-03

GPKDE histogram statistics 
   Max count         :   321.00000000117615     
   Max raw density   :   321.00000000117615     
   Min count         :   0.0000000000000000     
   Min raw density   :   0.0000000000000000     
   Mean raw density  :   139.75433807810936     


GPKDE data points statistics 
   Mean coordinates                 :   64.948954211099178        100.79241494910914       0.50000000000000000     
   Std. dev. coordinates            :   25.778813060471403        42.501737926246065        0.0000000000000000     
   Std. sigma scale                 :   33.100518980007621     
   Global smoothing scale Silverman :   3.4989290570535849     

 GPKDE compute density 
   initialSmoothing   :   3.4989290570535849        3.4989290570535849        0.0000000000000000     
 GPKDE Optimization -- Time: 9 -- Specie: 1
|-----------------------------------------------------------|
| Loop |  hHatOverLambda |     ALMISE      |      RMSE      |
|-----------------------------------------------------------|
     0  3.498929057E+000  0.000000000E+000  1.054439130E-004
     1  1.374683824E+000  2.130351637E-009  6.401284730E-005
     2  7.571031532E-001  1.106497228E-008  3.677484429E-005
     3  5.911327221E-001  3.781249574E-008  2.798418706E-005
     4  5.589417586E-001  8.210894035E-008  2.686284344E-005
     5  5.517111658E-001  1.343330050E-007  2.661917399E-005
     6  5.495456752E-001  2.517738306E-007  2.656357836E-005
    - Bandwidth convergence    9.3772E-03

GPKDE histogram statistics 
   Max count         :   321.00000000117615     
   Max raw density   :   321.00000000117615     
   Min count         :   0.0000000000000000     
   Min raw density   :   0.0000000000000000     
   Mean raw density  :   133.38295496885377     


GPKDE data points statistics 
   Mean coordinates                 :   69.025178221507161        100.67281993556080       0.50000000000000000     
   Std. dev. coordinates            :   27.838465305097881        42.762457641803067        0.0000000000000000     
   Std. sigma scale                 :   34.502770807893853     
   Global smoothing scale Silverman :   3.6471557259121923     

 GPKDE compute density 
   initialSmoothing   :   3.6471557259121923        3.6471557259121923        0.0000000000000000     
 GPKDE Optimization -- Time: 10 -- Specie: 1
|-----------------------------------------------------------|
| Loop |  hHatOverLambda |     ALMISE      |      RMSE      |
|-----------------------------------------------------------|
     0  3.647155726E+000  0.000000000E+000  1.076627478E-004
     1  1.366014604E+000  1.997307134E-009  6.390227870E-005
     2  7.598530455E-001  1.053707730E-008  3.696211160E-005
     3  5.918323092E-001  3.853564947E-008  2.817763021E-005
     4  5.604976256E-001  8.169173733E-008  2.705190338E-005
     5  5.539703388E-001  1.343006603E-007  2.687927817E-005
     6  5.518558017E-001  2.080607859E-007  2.687592878E-005
    - Bandwidth convergence    9.0159E-03

GPKDE histogram statistics 
   Max count         :   320.00000000117251     
   Max raw density   :   320.00000000117251     
   Min count         :   0.0000000000000000     
   Min raw density   :   0.0000000000000000     
   Mean raw density  :   127.49911063725079     


GPKDE data points statistics 
   Mean coordinates                 :   73.174228055240732        100.61486876986173       0.50000000000000000     
   Std. dev. coordinates            :   29.882669407815396        43.041636201364263        0.0000000000000000     
   Std. sigma scale                 :   35.863616457028250     
   Global smoothing scale Silverman :   3.7910055062373043     

 GPKDE compute density 
   initialSmoothing   :   3.7910055062373043        3.7910055062373043        0.0000000000000000     
 GPKDE Optimization -- Time: 11 -- Specie: 1
|-----------------------------------------------------------|
| Loop |  hHatOverLambda |     ALMISE      |      RMSE      |
|-----------------------------------------------------------|
     0  3.791005506E+000  0.000000000E+000  1.055985785E-004
     1  1.379255500E+000  1.748323010E-009  6.331644768E-005
     2  7.646687721E-001  9.743573300E-009  3.618559023E-005
     3  5.991423065E-001  3.968824383E-008  2.779555965E-005
     4  5.678560803E-001  9.617261420E-008  2.678732288E-005
     5  5.619013901E-001  1.720089699E-007  2.668671607E-005
     6  5.606912447E-001  2.524034330E-007  2.660936656E-005
     7  5.600184746E-001  3.615810810E-007  2.658219503E-005
     8  5.593257667E-001  4.808721722E-007  2.658627623E-005
     9  5.596940884E-001  5.144616805E-007  2.655954798E-005
    10  5.600582022E-001  5.513418470E-007  2.659813789E-005
    11  5.601968079E-001  5.627269615E-007  2.657445215E-005
    12  5.609859785E-001  5.821952396E-007  2.660331629E-005
    13  5.599280403E-001  5.903556020E-007  2.659128024E-005
    - ALMISE convergence    5.9361E-07

GPKDE histogram statistics 
   Max count         :   323.00000000118354     
   Max raw density   :   323.00000000118354     
   Min count         :   0.0000000000000000     
   Min raw density   :   0.0000000000000000     
   Mean raw density  :   122.48803827796026     


GPKDE data points statistics 
   Mean coordinates                 :   77.312633008241946        100.65820226350658       0.50000000000000000     
   Std. dev. coordinates            :   31.871344566408673        43.283192809798862        0.0000000000000000     
   Std. sigma scale                 :   37.141534055224511     
   Global smoothing scale Silverman :   3.9260892799856757     

 GPKDE compute density 
   initialSmoothing   :   3.9260892799856757        3.9260892799856757        0.0000000000000000     
 GPKDE Optimization -- Time: 12 -- Specie: 1
|-----------------------------------------------------------|
| Loop |  hHatOverLambda |     ALMISE      |      RMSE      |
|-----------------------------------------------------------|
     0  3.926089280E+000  0.000000000E+000  1.022203799E-004
     1  1.366521386E+000  1.692568864E-009  6.061186194E-005
     2  7.615997499E-001  9.508420892E-009  3.452640168E-005
     3  5.995436168E-001  3.821586556E-008  2.671311831E-005
     4  5.683851987E-001  9.521266201E-008  2.576414233E-005
     5  5.612971692E-001  1.761941945E-007  2.551653955E-005
     6  5.603219770E-001  3.329321513E-007  2.554181102E-005
    - Bandwidth convergence    9.8378E-03

GPKDE histogram statistics 
   Max count         :   338.00000000123896     
   Max raw density   :   338.00000000123896     
   Min count         :   0.0000000000000000     
   Min raw density   :   0.0000000000000000     
   Mean raw density  :   116.81877444632069     


GPKDE data points statistics 
   Mean coordinates                 :   81.413721865677473        100.73525439121488       0.50000000000000000     
   Std. dev. coordinates            :   33.865341712270272        43.559924994862250        0.0000000000000000     
   Std. sigma scale                 :   38.407964602564832     
   Global smoothing scale Silverman :   4.0599588015936510     

 GPKDE compute density 
   initialSmoothing   :   4.0599588015936510        4.0599588015936510        0.0000000000000000     
 GPKDE Optimization -- Time: 13 -- Specie: 1
|-----------------------------------------------------------|
| Loop |  hHatOverLambda |     ALMISE      |      RMSE      |
|-----------------------------------------------------------|
     0  4.059958802E+000  0.000000000E+000  1.034624959E-004