
MODPATH-RW Version 0.0.1               
Program compiled Mar 28 2023 10:15:59 with GFORTRAN compiler (ver. 12.1.0)                

This program has been developed and published by the Hydrogeology
Group (GHS), Universitat Politècnica de Catalunya (UPC). It is free
to use and modify under the condition that neither the GHS nor UPC
shall be considered legally responsible for any wrongdoing or damages
derived from its use. The code is an extension of software originally
released by the U.S. Geological Survey (USGS), without endorsement
from this institution, explicit or implied. Their release conditions
also apply (see disclaimer below).

This software has been approved for release by the U.S. Geological
Survey (USGS). Although the software has been subjected to rigorous
review, the USGS reserves the right to update the software as needed
pursuant to further analysis and review. No warranty, expressed or
implied, is made by the USGS or the U.S. Government as to the
functionality of the software and related material nor shall the
fact of release constitute any such warranty. Furthermore, the
software is released on condition that neither the USGS nor the U.S.
Government shall be held liable for any damages resulting from its
authorized or unauthorized use. Also refer to the USGS Water
Resources Software User Rights Notice for complete use, copyright,
and distribution information.


MODPATH-RW name file data
-------------------------
   MPBAS File: mpathrw.mpbas
  GRBDIS File: mf6_model.dis.grb
    TDIS File: mf6_sim.tdis
    HEAD File: mf6_model_steady.hds
  BUDGET File: mf6_model_steady.bud
     DSP File: mpathrw.dsp
  RWOPTS File: mpathrw.rwopts
      IC File: mpathrw.ic.npx8
   GPKDE File: mpathrw.gpkde

Grid data
---------
Grid file type: MODFLOW-6 DIS binary grid file.
Time discretization file type: MODFLOW-6 time discretization file.
 # File generated by Flopy version 3.3.6 on 03/28/2023 at 09:17:49.

 Time discretization file data
 -----------------------------
 Stress period count =          1
 Period length:      100.00000 Time step count:         1 Time step multiplier:        1.00000

 The budget file was opened successfully.

 MODPATH basic data file data
 ----------------------------
 # # MPBAS package for MODPATH 7 generated by Flopy 3.3.6
 Aquifer head is set to  1.00000E+30 at cells with IDOMAIN = 0.
 Aquifer head is set to -1.00000E+30 at all dry cells when Newton-Raphson rewetting is not active.


                 POROSITY =  0.350000     FOR LAYER   1

 MODPATH-RW simulation file data
 -------------------------------
 # MPSIM package for MODPATH 7 generated by Flopy 3.3.6
RWPT with Timeseries Analysis (Simulation type = 5)
Forward tracking (Tracking direction =  1)
Stop particles when they enter weak sink cells. (Weak sink option = 2)
Let particles pass through weak source cells for backtracking simulations (Weak source option = 1)
No timeseries output, skip TimeseriesWriter (Timeseries output option = 2)
Particle groups with default mass and soluteid (ParticlesMassOption = 0)
Solutes with the same dispersion (SolutesOption= 0)
Reference time =   0.0000000E+00
Specify a limit for tracking time (Stoping time option =  3)
Stop time =   0.1501000E+03
The zone value for all cells = 1

The retardation factor for all cells = 1

Number of particle groups =     0

The simulation will be run with stoptime =   0.1501000E+03

 MODPATH-RW GPKDE file data
 --------------------------
GPKDE reconstruction is enabled
GPKDE reconstruction with kernel database
GPKDE output is requested to be expressed as resident concentration.
Porosity and retardation are spatially uniform, GPKDE output is given as concentration.

 MODPATH-RW OBS file data
 --------------------------
No observations were specified

 MODPATH-RW RWOPTS file data
 ---------------------------
RW time step will be selected with the MIN_ADV_DISP criteria.
RW advection integration is EULERIAN.
Random displacements for 2 dimensions.
Random displacements for X dimension.
Random displacements for Y dimension.

 MODPATH-RW IC file data
 -----------------------
Given number of initial conditions =     1
Processing initial condition:     1



                       IC           FOR LAYER   1
 READING ON UNIT  123 WITH FORMAT: (1000E15.6)         
Original particle mass for initial condition =   5.468750000E-003
Effective particle mass for initial condition =   4.320987654E-003
Retardation factor is unitary so total dissolved mass is the total mass.
Total accumulated mass for initial condition =   9.800000000E+002
Total number of particles for this initial condition =     226800
Total number of particles on initial conditions =     226800


 MODPATH-RW SRC file data
 ------------------------
SRC package was not specified in name file.

 Budget File Data
 ----------------
    Budget file type:  Unstructured grid
  Budget file format:  Compact
    Budget precision:  Double

 MODPATH-RW IMP file data
 ------------------------
IMP package was not specified in name file.

 MODPATH-RW SPC file data
 ------------------------
SPC package was not specified in name file.
ParticlesMassOption.ne.2. Will create a single solute and leave.

 MODPATH-RW DSP file data
 ------------------------
Given number of dispersion parameters/models =     1
Simulation is single dispersion, will read only first dispersion data.
Processing dispersion data:     1
Dispersion model is linear, isotropic: will read dmeff and dispersivities

           DMEFF          =   0.00000     FOR LAYER   1

          ALPHAL          =  2.000000E-02 FOR LAYER   1

         ALPHATH          =  2.000000E-03 FOR LAYER   1

 TransportModelData: verify SPC-DSP relations 
 ---------------------------------------------
Simulation is single dispersion. Is consistent.

------------------------------
 GPKDE module is initializing 
 GPKDE initializing Histogram 
   Histogram determines dimensions to be analyzed based on binSizes 
   Will compute Histogram considering            2  dimensions 
   binSize            :   1.0000000000000000        1.0000000000000000        0.0000000000000000     
   domainSize         :   1000.0000000000000        200.00000000000000        0.0000000000000000     
   domainOrigin       :   0.0000000000000000        0.0000000000000000        0.0000000000000000     
   Computed nBins     :        1000         200           1
   Dimensionality for reconstruction is determined from nBins 
   Will perform reconstruction in            2  dimensions.
 Initializing kernels database with parameters: 
  minHOverLambda         :  0.25000000000000000     
  maxHOverLambda         :   15.000000000000000     
  deltaHOverLambda       :   9.5217315400513772E-002
 Database is for kernels 2D 
 GPKDE module is initialized  
------------------------------



 Run particle tracking simulation ...

 ----------------------------------------------------------------------------------------------
 Processing Time Step     1 Period     1.  Time =  1.00000E+02  Steady-state flow                                                    
   (Cumulative step =      1)
 ----------------------------------------------------------------------------------------------

GPKDE histogram statistics 
   Max count         :   80.999999999455667     
   Max raw density   :   80.999999999455667     
   Min count         :   0.0000000000000000     
   Min raw density   :   0.0000000000000000     
   Mean raw density  :   80.999999999453465     


GPKDE data points statistics 
   Mean coordinates                 :   29.999999999999996        100.00000000000004       0.50000000000000000     
   Std. dev. coordinates            :   5.7734135939444036        40.414506115096295        0.0000000000000000     
   Std. sigma scale                 :   15.275132045172183     
   Global smoothing scale Silverman :   1.9560402994892938     

 GPKDE compute density 
   initialSmoothing   :   1.9560402994892938        1.9560402994892938        0.0000000000000000     
 GPKDE Optimization -- Time: 0 -- Specie: 1
|-----------------------------------------------------------|
| Loop |  hHatOverLambda |     ALMISE      |      RMSE      |
|-----------------------------------------------------------|
     0  1.956040299E+000  0.000000000E+000  5.569056433E-005
     1  1.302571203E+000  2.403510800E-008  4.315213835E-005
     2  1.045249169E+000  6.341449883E-008  3.189680027E-005
     3  8.409805102E-001  1.112306334E-007  2.632513012E-005
     4  7.510022941E-001  1.873985860E-007  1.928447797E-005
     5  7.762663695E-001  3.693346599E-007  1.896022280E-005
     6  7.309256940E-001  6.015714197E-007  3.243960723E-005
     7  6.339524274E-001  4.683696368E-007  2.120358662E-005
     8  6.892380154E-001  4.530371258E-007  1.989288359E-005
     9  7.427239352E-001  7.070209268E-007  1.907584550E-005
    10  7.445241762E-001  8.525990279E-007  2.612854706E-005
    11  6.182402656E-001  4.561348971E-007  2.502855586E-005
    12  6.700556773E-001  4.016475916E-007  2.084001589E-005
    13  7.050089495E-001  5.444931399E-007  1.920860031E-005
    14  7.551748092E-001  7.942208240E-007  2.147667346E-005
    15  7.166800377E-001  7.607688396E-007  2.039407336E-005
    16  6.957546594E-001  6.438228023E-007  1.998060103E-005
    17  7.346672080E-001  6.774779383E-007  1.921760711E-005
    18  7.460873605E-001  8.089933272E-007  2.900074033E-005
    19  6.369447075E-001  5.391749190E-007  2.148573426E-005
    20  6.851356423E-001  4.214581929E-007  1.955372792E-005
    - Max loops 

GPKDE histogram statistics 
   Max count         :   106.99999999928106     
   Max raw density   :   106.99999999928106     
   Min count         :   0.0000000000000000     
   Min raw density   :   0.0000000000000000     
   Mean raw density  :   70.412915243240434     


GPKDE data points statistics 
   Mean coordinates                 :   34.163709011501908        100.50425205003236       0.50000000000000000     
   Std. dev. coordinates            :   7.1498835617840442        41.025933235223178        0.0000000000000000     
   Std. sigma scale                 :   17.126898307789762     
   Global smoothing scale Silverman :   2.1931661995602827     

 GPKDE compute density 
   initialSmoothing   :   2.1931661995602827        2.1931661995602827        0.0000000000000000     
 GPKDE Optimization -- Time: 1 -- Specie: 1
|-----------------------------------------------------------|
| Loop |  hHatOverLambda |     ALMISE      |      RMSE      |
|-----------------------------------------------------------|
     0  2.193166200E+000  0.000000000E+000  6.592782967E-005
     1  1.313557799E+000  2.224927686E-008  5.134196969E-005
     2  1.012856559E+000  6.023066794E-008  4.270466730E-005
     3  8.270591748E-001  9.451717954E-008  3.695155353E-005
     4  7.428840791E-001  1.345978404E-007  3.322603132E-005
     5  6.931651168E-001  1.659576170E-007  3.091562505E-005
     6  6.701683343E-001  1.837792382E-007  2.982987588E-005
     7  6.590284613E-001  1.942202084E-007  2.945628535E-005
     8  6.534569496E-001  1.997181346E-007  2.922665098E-005
     9  6.503631227E-001  2.023153767E-007  2.916955906E-005
    - ALMISE convergence    2.0272E-07

GPKDE histogram statistics 
   Max count         :   107.99999999927435     
   Max raw density   :   107.99999999927435     
   Min count         :   0.0000000000000000     
   Min raw density   :   0.0000000000000000     
   Mean raw density  :   65.930232557696968     


GPKDE data points statistics 
   Mean coordinates                 :   38.100390589887034        101.07646280493444       0.50000000000000000     
   Std. dev. coordinates            :   9.2988630029306591        41.613017567981743        0.0000000000000000     
   Std. sigma scale                 :   19.671140015342502     
   Global smoothing scale Silverman :   2.5189662840962144     

 GPKDE compute density 
   initialSmoothing   :   2.5189662840962144        2.5189662840962144        0.0000000000000000     
 GPKDE Optimization -- Time: 2 -- Specie: 1
|-----------------------------------------------------------|
| Loop |  hHatOverLambda |     ALMISE      |      RMSE      |
|-----------------------------------------------------------|
     0  2.518966284E+000  0.000000000E+000  8.157861349E-005
     1  1.422379389E+000  1.745301585E-008  6.092776336E-005
     2  1.028074834E+000  5.134444780E-008  4.851512680E-005
     3  8.249998372E-001  8.739577818E-008  4.023818116E-005
     4  7.235768376E-001  1.344871313E-007  3.558859852E-005
     5  6.653234901E-001  1.806767364E-007  3.333194170E-005
     6  6.424865764E-001  2.117128490E-007  3.226713076E-005
     7  6.299165877E-001  2.280471475E-007  3.174060782E-005
     8  6.248750660E-001  2.359313009E-007  3.157412286E-005
     9  6.211492332E-001  2.391218155E-007  3.143241519E-005
    - ALMISE convergence    2.3904E-07

GPKDE histogram statistics 
   Max count         :   106.99999999928106     
   Max raw density   :   106.99999999928106     
   Min count         :   0.0000000000000000     
   Min raw density   :   0.0000000000000000     
   Mean raw density  :   62.290579510705101     


GPKDE data points statistics 
   Mean coordinates                 :   41.935442349287072        101.58528437669683       0.50000000000000000     
   Std. dev. coordinates            :   11.561041075045397        41.887711658199876        0.0000000000000000     
   Std. sigma scale                 :   22.006034513744332     
   Global smoothing scale Silverman :   2.8179586411130755     

 GPKDE compute density 
   initialSmoothing   :   2.8179586411130755        2.8179586411130755        0.0000000000000000     
 GPKDE Optimization -- Time: 3 -- Specie: 1
|-----------------------------------------------------------|
| Loop |  hHatOverLambda |     ALMISE      |      RMSE      |
|-----------------------------------------------------------|
     0  2.817958641E+000  0.000000000E+000  9.074372706E-005
     1  1.469016411E+000  1.506898477E-008  6.584097303E-005
     2  1.020482999E+000  4.748527813E-008  5.084452193E-005
     3  8.039162160E-001  8.724300372E-008  4.114499360E-005
     4  7.010887249E-001  1.472465300E-007  3.648306948E-005
     5  6.522815800E-001  2.067087113E-007  3.436087948E-005
     6  6.324087675E-001  2.459062903E-007  3.324148816E-005
     7  6.206465958E-001  2.650366184E-007  3.278824881E-005
     8  6.164645165E-001  2.766921741E-007  3.257561881E-005
     9  6.143478870E-001  2.835177157E-007  3.254445465E-005
    10  6.146156526E-001  2.868012675E-007  3.254512056E-005
    11  6.138135825E-001  2.908574446E-007  3.248075709E-005
    - ALMISE convergence    2.9195E-07

GPKDE histogram statistics 
   Max count         :   110.99999999925420     
   Max raw density   :   110.99999999925420     
   Min count         :   0.0000000000000000     
   Min raw density   :   0.0000000000000000     
   Mean raw density  :   59.185803757431472     


GPKDE data points statistics 
   Mean coordinates                 :   45.618713103099559        101.93196971058981       0.50000000000000000     
   Std. dev. coordinates            :   13.822762973341129        41.877204906012679        0.0000000000000000     
   Std. sigma scale                 :   24.059482068445522     
   Global smoothing scale Silverman :   3.0809106180914192     

 GPKDE compute density 
   initialSmoothing   :   3.0809106180914192        3.0809106180914192        0.0000000000000000     
 GPKDE Optimization -- Time: 4 -- Specie: 1
|-----------------------------------------------------------|
| Loop |  hHatOverLambda |     ALMISE      |      RMSE      |
|-----------------------------------------------------------|
     0  3.080910618E+000  0.000000000E+000  9.676249159E-005
     1  1.521024998E+000  1.298256287E-008  6.755684106E-005
     2  1.012786162E+000  4.401169923E-008  5.072865219E-005
     3  7.898319837E-001  8.642693503E-008  4.082569934E-005
     4  6.897864412E-001  1.572848937E-007  3.601067786E-005
     5  6.430376367E-001  2.402390625E-007  3.382543907E-005
     6  6.245685133E-001  3.113281206E-007  3.293271428E-005
     7  6.163845468E-001  3.825034951E-007  3.258648732E-005
     8  6.115361119E-001  4.229535888E-007  3.244066756E-005
     9  6.104297632E-001  4.407138731E-007  3.240411098E-005
    10  6.101156768E-001  4.313481035E-007  3.234668756E-005
    11  6.096110609E-001  4.461644161E-007  3.232878248E-005
    - ALMISE convergence    4.4833E-07

GPKDE histogram statistics 
   Max count         :   104.99999999929449     
   Max raw density   :   104.99999999929449     
   Min count         :   0.0000000000000000     
   Min raw density   :   0.0000000000000000     
   Mean raw density  :   55.999999999624244     


GPKDE data points statistics 
   Mean coordinates                 :   49.378383454876683        102.12734866346936       0.50000000000000000     
   Std. dev. coordinates            :   16.310743645281626        41.785004549039442        0.0000000000000000     
   Std. sigma scale                 :   26.106407210037709     
   Global smoothing scale Silverman :   3.3430273746046697     

 GPKDE compute density 
   initialSmoothing   :   3.3430273746046697        3.3430273746046697        0.0000000000000000     
 GPKDE Optimization -- Time: 5 -- Specie: 1
|-----------------------------------------------------------|
| Loop |  hHatOverLambda |     ALMISE      |      RMSE      |
|-----------------------------------------------------------|
     0  3.343027375E+000  0.000000000E+000  1.040275770E-004
     1  1.590996675E+000  1.091093357E-008  7.153965918E-005
     2  1.014743028E+000  3.937489994E-008  5.255083234E-005
     3  7.741133338E-001  8.562590632E-008  4.196359609E-005
     4  6.777545389E-001  1.588135836E-007  3.730008529E-005
     5  6.367455934E-001  2.315312506E-007  3.518806647E-005
     6  6.207473737E-001  2.998759653E-007  3.444561185E-005
     7  6.141894267E-001  3.576961209E-007  3.421093459E-005
     8  6.111885816E-001  4.084672659E-007  3.403791224E-005
     9  6.098676458E-001  4.322793908E-007  3.402147759E-005
    10  6.100086248E-001  4.634208849E-007  3.399691910E-005
    - ALMISE convergence    4.6357E-07

GPKDE histogram statistics 
   Max count         :   111.99999999924748     
   Max raw density   :   111.99999999924748     
   Min count         :   0.0000000000000000     
   Min raw density   :   0.0000000000000000     
   Mean raw density  :   53.327063249112989     


GPKDE data points statistics 
   Mean coordinates                 :   53.214076383254394        101.91988391749588       0.50000000000000000     
   Std. dev. coordinates            :   18.843484028622360        41.840322072398578        0.0000000000000000     
   Std. sigma scale                 :   28.078772065809041     
   Global smoothing scale Silverman :   3.5955963954010870     

 GPKDE compute density 
   initialSmoothing   :   3.5955963954010870        3.5955963954010870        0.0000000000000000     
 GPKDE Optimization -- Time: 6 -- Specie: 1
|-----------------------------------------------------------|
| Loop |  hHatOverLambda |     ALMISE      |      RMSE      |
|-----------------------------------------------------------|
     0  3.595596395E+000  0.000000000E+000  1.073277546E-004
     1  1.657865326E+000  9.041624957E-009  7.520319727E-005
     2  1.022462343E+000  3.501734915E-008  5.277185829E-005
     3  7.594738024E-001  8.431026023E-008  4.063969394E-005
     4  6.614738847E-001  1.724442204E-007  3.591780416E-005
     5  6.281125518E-001  2.706835217E-007  3.425970813E-005
     6  6.168340596E-001  3.794340034E-007  3.376684637E-005
     7  6.124717191E-001  4.856200883E-007  3.357353742E-005
     8  6.098391242E-001  6.054673272E-007  3.345672371E-005
     9  6.087703467E-001  6.557134642E-007  3.340100340E-005
    - ALMISE convergence    6.6100E-07

GPKDE histogram statistics 
   Max count         :   109.99999999926091     
   Max raw density   :   109.99999999926091     
   Min count         :   0.0000000000000000     
   Min raw density   :   0.0000000000000000     
   Mean raw density  :   50.897666067881083     


GPKDE data points statistics 
   Mean coordinates                 :   57.094694844852874        101.46412531373208       0.50000000000000000     
   Std. dev. coordinates            :   21.360822214764408        42.029634296333022        0.0000000000000000     
   Std. sigma scale                 :   29.963103076209155     
   Global smoothing scale Silverman :   3.8368923385733056     

 GPKDE compute density 
   initialSmoothing   :   3.8368923385733056        3.8368923385733056        0.0000000000000000     
 GPKDE Optimization -- Time: 7 -- Specie: 1
|-----------------------------------------------------------|
| Loop |  hHatOverLambda |     ALMISE      |      RMSE      |
|-----------------------------------------------------------|
     0  3.836892339E+000  0.000000000E+000  1.142014766E-004
     1  1.681005556E+000  7.885299053E-009  7.723973764E-005
     2  1.018832193E+000  3.292124694E-008  5.335714506E-005
     3  7.453652174E-001  8.500248497E-008  4.024093887E-005
     4  6.564654057E-001  1.804247311E-007  3.592849772E-005
     5  6.288253496E-001  2.670483174E-007  3.459934686E-005
     6  6.185136399E-001  3.532124632E-007  3.408520452E-005
     7  6.135069566E-001  4.223160305E-007  3.378825648E-005
     8  6.113372888E-001  4.553166932E-007  3.368297054E-005
     9  6.109282578E-001  4.638266686E-007  3.368540968E-005
    10  6.099310902E-001  4.705957683E-007  3.355333731E-005
    11  6.098238567E-001  4.637946842E-007  3.360404016E-005
    12  6.098403249E-001  4.736857730E-007  3.351217726E-005
    13  6.097701802E-001  4.655490673E-007  3.364185106E-005
    14  6.100689463E-001  4.786485153E-007  3.358581699E-005
    15  6.094127524E-001  4.738466557E-007  3.361019029E-005
    16  6.095950683E-001  4.836583503E-007  3.360113035E-005
    17  6.097703007E-001  4.736810237E-007  3.362830927E-005
    18  6.098953609E-001  4.883890010E-007  3.360765269E-005
    19  6.096894792E-001  4.816621728E-007  3.358266043E-005
    - ALMISE convergence    4.8604E-07

GPKDE histogram statistics 
   Max count         :   110.99999999925420     
   Max raw density   :   110.99999999925420     
   Min count         :   0.0000000000000000     
   Min raw density   :   0.0000000000000000     
   Mean raw density  :   48.700880394777414     


GPKDE data points statistics 
   Mean coordinates                 :   61.011378471639134        101.04539219934377       0.50000000000000000     
   Std. dev. coordinates            :   23.715643322913291        42.259870179920142        0.0000000000000000     
   Std. sigma scale                 :   31.657858551386660     
   Global smoothing scale Silverman :   4.0539123942706352     

 GPKDE compute density 
   initialSmoothing   :   4.0539123942706352        4.0539123942706352        0.0000000000000000     
 GPKDE Optimization -- Time: 8 -- Specie: 1
|-----------------------------------------------------------|
| Loop |  hHatOverLambda |     ALMISE      |      RMSE      |
|-----------------------------------------------------------|
     0  4.053912394E+000  0.000000000E+000  1.192524473E-004
     1  1.673159501E+000  6.911522372E-009  7.712635159E-005
     2  1.004545233E+000  3.241788829E-008  5.274654756E-005
     3  7.304580961E-001  8.450655614E-008  3.928959434E-005
     4  6.487856839E-001  1.813451641E-007  3.540382541E-005
     5  6.245297603E-001  2.855395725E-007  3.419533640E-005
     6  6.153794018E-001  4.118299421E-007  3.379931971E-005
     7  6.113081350E-001  5.212495468E-007  3.361582905E-005
     8  6.101026827E-001  6.206068703E-007  3.354187174E-005
    - ALMISE convergence    6.2551E-07

GPKDE histogram statistics 
   Max count         :   109.99999999926091     
   Max raw density   :   109.99999999926091     
   Min count         :   0.0000000000000000     
   Min raw density   :   0.0000000000000000     
   Mean raw density  :   46.446856440401341     


GPKDE data points statistics 
   Mean coordinates                 :   64.955412133699298        100.79433547858126       0.50000000000000000     
   Std. dev. coordinates            :   25.781020198370836        42.502222434377799        0.0000000000000000     
   Std. sigma scale                 :   33.102124630548175     
   Global smoothing scale Silverman :   4.2388563047828978     

 GPKDE compute density 
   initialSmoothing   :   4.2388563047828978        4.2388563047828978        0.0000000000000000     
 GPKDE Optimization -- Time: 9 -- Specie: 1
|-----------------------------------------------------------|
| Loop |  hHatOverLambda |     ALMISE      |      RMSE      |
|-----------------------------------------------------------|
     0  4.238856305E+000  0.000000000E+000  1.180546650E-004
     1  1.663583677E+000  6.262388225E-009  7.626147230E-005
     2  9.962601361E-001  3.177764533E-008  5.206903375E-005
     3  7.260378795E-001  8.480571135E-008  3.895344639E-005
     4  6.439418467E-001  1.775623827E-007  3.484494756E-005
     5  6.187606771E-001  2.762854781E-007  3.357858602E-005
     6  6.104331375E-001  4.935868544E-007  3.318352642E-005
     7  6.077242718E-001  7.242112022E-007  3.303834600E-005
     8  6.049662232E-001  1.027335860E-006  3.297214779E-005
     9  6.044092123E-001  1.258569886E-006  3.294727745E-005
    10  6.036018717E-001  1.387289646E-006  3.292212720E-005
    11  6.039202545E-001  1.248667369E-006  3.291318637E-005
    12  6.032930204E-001  1.330022098E-006  3.292365667E-005
    13  6.035428017E-001  1.220068157E-006  3.291953329E-005
    14  6.034820644E-001  1.415843153E-006  3.290765084E-005
    15  6.038535976E-001  1.269219017E-006  3.291633341E-005
    - ALMISE convergence    1.2639E-06

GPKDE histogram statistics 
   Max count         :   113.99999999923405     
   Max raw density   :   113.99999999923405     
   Min count         :   0.0000000000000000     
   Min raw density   :   0.0000000000000000     
   Mean raw density  :   44.716088327775722     


GPKDE data points statistics 
   Mean coordinates                 :   69.034125472498403        100.67295639807149       0.50000000000000000     
   Std. dev. coordinates            :   27.844036678494469        42.764019717022812        0.0000000000000000     
   Std. sigma scale                 :   34.506853428277751     
   Global smoothing scale Silverman :   4.4187373120361624     

 GPKDE compute density 
   initialSmoothing   :   4.4187373120361624        4.4187373120361624        0.0000000000000000     
 GPKDE Optimization -- Time: 10 -- Specie: 1
|-----------------------------------------------------------|
| Loop |  hHatOverLambda |     ALMISE      |      RMSE      |
|-----------------------------------------------------------|
     0  4.418737312E+000  0.000000000E+000  1.203046364E-004
     1  1.628462615E+000  5.788845059E-009  7.522128059E-005
     2  9.874012893E-001  3.158635982E-008  5.160848466E-005
     3  7.268241724E-001  8.563171395E-008  3.877055210E-005
     4  6.457328137E-001  1.808460319E-007  3.488152320E-005
     5  6.206638838E-001  2.763510744E-007  3.375161208E-005
     6  6.136205408E-001  3.901313207E-007  3.348375841E-005
     7  6.098814629E-001  4.813398264E-007  3.323530415E-005
     8  6.081232850E-001  5.714593728E-007  3.316170437E-005
     9  6.069717909E-001  6.178096424E-007  3.311266363E-005
    - ALMISE convergence    6.1326E-07

GPKDE histogram statistics 
   Max count         :   112.99999999924077     
   Max raw density   :   112.99999999924077     
   Min count         :   0.0000000000000000     
   Min raw density   :   0.0000000000000000     
   Mean raw density  :   42.905788875989195     


GPKDE data points statistics 
   Mean coordinates                 :   73.184051665670879        100.61680742705560       0.50000000000000000     
   Std. dev. coordinates            :   29.894926775815531        43.046653504662913        0.0000000000000000     
   Std. sigma scale                 :   35.873061682351576     
   Global smoothing scale Silverman :   4.5936856132724797     

 GPKDE compute density 
   initialSmoothing   :   4.5936856132724797        4.5936856132724797        0.0000000000000000     
 GPKDE Optimization -- Time: 11 -- Specie: 1
|-----------------------------------------------------------|
| Loop |  hHatOverLambda |     ALMISE      |      RMSE      |
|-----------------------------------------------------------|
     0  4.593685613E+000  0.000000000E+000  1.177486944E-004
     1  1.618725404E+000  5.550014885E-009  7.382992466E-005
     2  9.851185733E-001  3.053809417E-008  5.047397142E-005
     3  7.257611199E-001  8.459519859E-008  3.776398961E-005
     4  6.493223054E-001  1.976589066E-007  3.426396205E-005
     5  6.273073581E-001  3.189196090E-007  3.332218100E-005
     6  6.208123698E-001  4.509093433E-007  3.302092379E-005
     7  6.169266384E-001  6.100987712E-007  3.292380812E-005
     8  6.139731427E-001  8.453085418E-007  3.282228876E-005
    - ALMISE convergence    8.4422E-07

GPKDE histogram statistics 
   Max count         :   109.99999999926091     
   Max raw density   :   109.99999999926091     
   Min count         :   0.0000000000000000     
   Min raw density   :   0.0000000000000000     
   Mean raw density  :   41.386861313591268     


GPKDE data points statistics 
   Mean coordinates                 :   77.321572646803190        100.66196783298521       0.50000000000000000     
   Std. dev. coordinates            :   31.883034349809986        43.285607901895879        0.0000000000000000     
   Std. sigma scale                 :   37.149381200614272     
   Global smoothing scale Silverman :   4.7571233109214273     

 GPKDE compute density 
   initialSmoothing   :   4.7571233109214273        4.7571233109214273        0.0000000000000000     
 GPKDE Optimization -- Time: 12 -- Specie: 1
|-----------------------------------------------------------|