
MODPATH-RW Version 0.0.1               
Program compiled Mar 30 2023 10:07:59 with GFORTRAN compiler (ver. 12.1.0)                

This program has been developed and published by the Hydrogeology
Group (GHS), Universitat Politècnica de Catalunya (UPC). It is free
to use and modify under the condition that neither the GHS nor UPC
shall be considered legally responsible for any wrongdoing or damages
derived from its use. The code is an extension of software originally
released by the U.S. Geological Survey (USGS), without endorsement
from this institution, explicit or implied. Their release conditions
also apply (see disclaimer below).

This software has been approved for release by the U.S. Geological
Survey (USGS). Although the software has been subjected to rigorous
review, the USGS reserves the right to update the software as needed
pursuant to further analysis and review. No warranty, expressed or
implied, is made by the USGS or the U.S. Government as to the
functionality of the software and related material nor shall the
fact of release constitute any such warranty. Furthermore, the
software is released on condition that neither the USGS nor the U.S.
Government shall be held liable for any damages resulting from its
authorized or unauthorized use. Also refer to the USGS Water
Resources Software User Rights Notice for complete use, copyright,
and distribution information.


MODPATH-RW name file data
-------------------------
   MPBAS File: mpathrw.mpbas
  GRBDIS File: mf6_model.dis.grb
    TDIS File: mf6_sim.tdis
    HEAD File: mf6_model_steady.hds
  BUDGET File: mf6_model_steady.bud
     DSP File: mpathrw.dsp
  RWOPTS File: mpathrw.rwopts
      IC File: mpathrw.ic.npx40
   GPKDE File: mpathrw.gpkde

Grid data
---------
Grid file type: MODFLOW-6 DIS binary grid file.
Time discretization file type: MODFLOW-6 time discretization file.
 # File generated by Flopy version 3.3.6 on 03/28/2023 at 09:17:49.

 Time discretization file data
 -----------------------------
 Stress period count =          1
 Period length:      100.00000 Time step count:         1 Time step multiplier:        1.00000

 The budget file was opened successfully.

 MODPATH basic data file data
 ----------------------------
 # # MPBAS package for MODPATH 7 generated by Flopy 3.3.6
 Aquifer head is set to  1.00000E+30 at cells with IDOMAIN = 0.
 Aquifer head is set to -1.00000E+30 at all dry cells when Newton-Raphson rewetting is not active.


                 POROSITY =  0.350000     FOR LAYER   1

 MODPATH-RW simulation file data
 -------------------------------
 # MPSIM package for MODPATH 7 generated by Flopy 3.3.6
RWPT with Timeseries Analysis (Simulation type = 5)
Forward tracking (Tracking direction =  1)
Stop particles when they enter weak sink cells. (Weak sink option = 2)
Let particles pass through weak source cells for backtracking simulations (Weak source option = 1)
No timeseries output, skip TimeseriesWriter (Timeseries output option = 2)
Particle groups with default mass and soluteid (ParticlesMassOption = 0)
Solutes with the same dispersion (SolutesOption= 0)
Reference time =   0.0000000E+00
Specify a limit for tracking time (Stoping time option =  3)
Stop time =   0.1501000E+03
The zone value for all cells = 1

The retardation factor for all cells = 1

Number of particle groups =     0

The simulation will be run with stoptime =   0.1501000E+03

 MODPATH-RW GPKDE file data
 --------------------------
GPKDE reconstruction is enabled
GPKDE reconstruction with kernel database
GPKDE output is requested to be expressed as resident concentration.
Porosity and retardation are spatially uniform, GPKDE output is given as concentration.

 MODPATH-RW OBS file data
 --------------------------
No observations were specified

 MODPATH-RW RWOPTS file data
 ---------------------------
RW time step will be selected with the MIN_ADV_DISP criteria.
RW advection integration is EULERIAN.
Random displacements for 2 dimensions.
Random displacements for X dimension.
Random displacements for Y dimension.

 MODPATH-RW IC file data
 -----------------------
Given number of initial conditions =     1
Processing initial condition:     1



                       IC           FOR LAYER   1
 READING ON UNIT  123 WITH FORMAT: (1000E15.6)         
Original particle mass for initial condition =   2.187500000E-004
Effective particle mass for initial condition =   2.082093992E-004
Retardation factor is unitary so total dissolved mass is the total mass.
Total accumulated mass for initial condition =   9.800000000E+002
Total number of particles for this initial condition =    4706800
Total number of particles on initial conditions =    4706800


 MODPATH-RW SRC file data
 ------------------------
SRC package was not specified in name file.

 Budget File Data
 ----------------
    Budget file type:  Unstructured grid
  Budget file format:  Compact
    Budget precision:  Double

 MODPATH-RW IMP file data
 ------------------------
IMP package was not specified in name file.

 MODPATH-RW SPC file data
 ------------------------
SPC package was not specified in name file.
ParticlesMassOption.ne.2. Will create a single solute and leave.

 MODPATH-RW DSP file data
 ------------------------
Given number of dispersion parameters/models =     1
Simulation is single dispersion, will read only first dispersion data.
Processing dispersion data:     1
Dispersion model is linear, isotropic: will read dmeff and dispersivities

           DMEFF          =   0.00000     FOR LAYER   1

          ALPHAL          =  2.000000E-02 FOR LAYER   1

         ALPHATH          =  2.000000E-03 FOR LAYER   1

 TransportModelData: verify SPC-DSP relations 
 ---------------------------------------------
Simulation is single dispersion. Is consistent.

------------------------------
 GPKDE module is initializing 
 GPKDE initializing Histogram 
   Histogram determines dimensions to be analyzed based on binSizes 
   Will compute Histogram considering            2  dimensions 
   binSize            :   1.0000000000000000        1.0000000000000000        0.0000000000000000     
   domainSize         :   1000.0000000000000        200.00000000000000        0.0000000000000000     
   domainOrigin       :   0.0000000000000000        0.0000000000000000        0.0000000000000000     
   Computed nBins     :        1000         200           1
   Dimensionality for reconstruction is determined from nBins 
   Will perform reconstruction in            2  dimensions.
 Initializing kernels database with parameters: 
  minHOverLambda         :  0.25000000000000000     
  maxHOverLambda         :   15.000000000000000     
  deltaHOverLambda       :   9.5217315400513772E-002
 Database is for kernels 2D 
 GPKDE module is initialized  
------------------------------



 Run particle tracking simulation ...

 ----------------------------------------------------------------------------------------------
 Processing Time Step     1 Period     1.  Time =  1.00000E+02  Steady-state flow                                                    
   (Cumulative step =      1)
 ----------------------------------------------------------------------------------------------

GPKDE histogram statistics 
   Max count         :   1681.0000002583520     
   Max raw density   :   1681.0000002583520     
   Min count         :   0.0000000000000000     
   Min raw density   :   0.0000000000000000     
   Mean raw density  :   1681.0000002583668     


GPKDE data points statistics 
   Mean coordinates                 :   30.000000000000000        99.999999999999829       0.50000000000000000     
   Std. dev. coordinates            :   5.7734983986972495        40.414518229961992        0.0000000000000000     
   Std. sigma scale                 :   15.275246521244963     
   Global smoothing scale Silverman :   1.1799599597622337     

 GPKDE compute density 
   initialSmoothing   :   1.1799599597622337        1.1799599597622337        0.0000000000000000     
 GPKDE Optimization -- Time: 0 -- Specie: 1
|-----------------------------------------------------------|
| Loop |  hHatOverLambda |     ALMISE      |      RMSE      |
|-----------------------------------------------------------|
     0  1.179959960E+000  0.000000000E+000  4.210452776E-005
     1  6.549681288E-001  3.916182042E-007  2.471098408E-005
     2  5.477454918E-001  2.005214319E-006  2.123008440E-005
     3  5.270239874E-001  5.119542304E-006  1.987361012E-005
     4  5.397082780E-001  8.673816395E-006  1.878864018E-005
     5  5.652253547E-001  1.602319663E-005  1.887601110E-005
     6  5.743876220E-001  2.434512416E-005  1.898219163E-005
     7  5.470958712E-001  2.400745712E-005  2.026382848E-005
     8  5.493784952E-001  2.096440979E-005  1.888204288E-005
     9  5.625444316E-001  2.191370604E-005  1.888871341E-005
    10  5.759946607E-001  2.425699608E-005  1.882915167E-005
    - ALMISE convergence    2.4237E-05

GPKDE histogram statistics 
   Max count         :   1843.0000002832469     
   Max raw density   :   1843.0000002832469     
   Min count         :   0.0000000000000000     
   Min raw density   :   0.0000000000000000     
   Mean raw density  :   1396.2622369395979     


GPKDE data points statistics 
   Mean coordinates                 :   34.163351749632241        100.50486508973356       0.50000000000000000     
   Std. dev. coordinates            :   7.1512477842454381        41.025606774472564        0.0000000000000000     
   Std. sigma scale                 :   17.128464015879285     
   Global smoothing scale Silverman :   1.3231146013163368     

 GPKDE compute density 
   initialSmoothing   :   1.3231146013163368        1.3231146013163368        0.0000000000000000     
 GPKDE Optimization -- Time: 1 -- Specie: 1
|-----------------------------------------------------------|
| Loop |  hHatOverLambda |     ALMISE      |      RMSE      |
|-----------------------------------------------------------|
     0  1.323114601E+000  0.000000000E+000  4.688961851E-005
     1  6.559384131E-001  3.564215838E-007  2.628275949E-005
     2  5.273381155E-001  1.395966011E-006  1.951752968E-005
     3  5.041190336E-001  2.581612534E-006  1.911397432E-005
    - Density convergence    7.3353E-03

GPKDE histogram statistics 
   Max count         :   1938.0000002978456     
   Max raw density   :   1938.0000002978456     
   Min count         :   0.0000000000000000     
   Min raw density   :   0.0000000000000000     
   Mean raw density  :   1283.5560405572389     


GPKDE data points statistics 
   Mean coordinates                 :   38.101809624893420        101.07711591160741       0.50000000000000000     
   Std. dev. coordinates            :   9.3007660465385058        41.612939139884702        0.0000000000000000     
   Std. sigma scale                 :   19.673134255855445     
   Global smoothing scale Silverman :   1.5196815758521889     

 GPKDE compute density 
   initialSmoothing   :   1.5196815758521889        1.5196815758521889        0.0000000000000000     
 GPKDE Optimization -- Time: 2 -- Specie: 1
|-----------------------------------------------------------|
| Loop |  hHatOverLambda |     ALMISE      |      RMSE      |
|-----------------------------------------------------------|
     0  1.519681576E+000  0.000000000E+000  5.579130109E-005
     1  7.058471331E-001  2.838101822E-007  3.097835395E-005
     2  5.133797163E-001  1.233198815E-006  2.132088034E-005
    - Density convergence    9.2241E-03

GPKDE histogram statistics 
   Max count         :   1939.0000002979993     
   Max raw density   :   1939.0000002979993     
   Min count         :   0.0000000000000000     
   Min raw density   :   0.0000000000000000     
   Mean raw density  :   1196.1372301711317     


GPKDE data points statistics 
   Mean coordinates                 :   41.935641519603102        101.58381309653126       0.50000000000000000     
   Std. dev. coordinates            :   11.565437427055368        41.886518940441142        0.0000000000000000     
   Std. sigma scale                 :   22.009904903084919     
   Global smoothing scale Silverman :   1.7001890259312162     

 GPKDE compute density 
   initialSmoothing   :   1.7001890259312162        1.7001890259312162        0.0000000000000000     
 GPKDE Optimization -- Time: 3 -- Specie: 1
|-----------------------------------------------------------|
| Loop |  hHatOverLambda |     ALMISE      |      RMSE      |
|-----------------------------------------------------------|
     0  1.700189026E+000  0.000000000E+000  6.795267038E-005
     1  7.276204851E-001  2.450296324E-007  3.385028584E-005
     2  5.128672110E-001  1.253407177E-006  2.279537150E-005
    - Density convergence    9.0053E-03

GPKDE histogram statistics 
   Max count         :   1927.0000002961553     
   Max raw density   :   1927.0000002961553     
   Min count         :   0.0000000000000000     
   Min raw density   :   0.0000000000000000     
   Mean raw density  :   1116.1489212054541     


GPKDE data points statistics 
   Mean coordinates                 :   45.618865017854688        101.93006876644307       0.50000000000000000     
   Std. dev. coordinates            :   13.825087560513415        41.874844393645134        0.0000000000000000     
   Std. sigma scale                 :   24.060826883650908     
   Global smoothing scale Silverman :   1.8586156552035069     

 GPKDE compute density 
   initialSmoothing   :   1.8586156552035069        1.8586156552035069        0.0000000000000000     
 GPKDE Optimization -- Time: 4 -- Specie: 1
|-----------------------------------------------------------|
| Loop |  hHatOverLambda |     ALMISE      |      RMSE      |
|-----------------------------------------------------------|
     0  1.858615655E+000  0.000000000E+000  7.223520696E-005
     1  7.454518904E-001  2.150919880E-007  3.498545862E-005
     2  5.153108377E-001  1.175502498E-006  2.334491175E-005
     3  5.015807101E-001  3.881849094E-006  2.308091395E-005
    - Density convergence    4.9621E-03

GPKDE histogram statistics 
   Max count         :   1985.0000003050684     
   Max raw density   :   1985.0000003050684     
   Min count         :   0.0000000000000000     
   Min raw density   :   0.0000000000000000     
   Mean raw density  :   1051.0942386608770     


GPKDE data points statistics 
   Mean coordinates                 :   49.374772588051940        102.12416560662328       0.50000000000000000     
   Std. dev. coordinates            :   16.307639607720997        41.783446380302280        0.0000000000000000     
   Std. sigma scale                 :   26.103436270700147     
   Global smoothing scale Silverman :   2.0164001653782169     

 GPKDE compute density 
   initialSmoothing   :   2.0164001653782169        2.0164001653782169        0.0000000000000000     
 GPKDE Optimization -- Time: 5 -- Specie: 1
|-----------------------------------------------------------|
| Loop |  hHatOverLambda |     ALMISE      |      RMSE      |
|-----------------------------------------------------------|
     0  2.016400165E+000  0.000000000E+000  7.356264364E-005
     1  7.707585640E-001  1.844810492E-007  3.669669217E-005
     2  5.218308925E-001  1.114904856E-006  2.428283707E-005
     3  5.032252582E-001  3.999973926E-006  2.396576690E-005
    - Density convergence    5.6727E-03

GPKDE histogram statistics 
   Max count         :   1985.0000003050684     
   Max raw density   :   1985.0000003050684     
   Min count         :   0.0000000000000000     
   Min raw density   :   0.0000000000000000     
   Mean raw density  :   991.32266232590507     


GPKDE data points statistics 
   Mean coordinates                 :   53.212706830918847        101.91559979611998       0.50000000000000000     
   Std. dev. coordinates            :   18.843519811394994        41.839770164185978        0.0000000000000000     
   Std. sigma scale                 :   28.078613534023571     
   Global smoothing scale Silverman :   2.1689757772292548     

 GPKDE compute density 
   initialSmoothing   :   2.1689757772292548        2.1689757772292548        0.0000000000000000     
 GPKDE Optimization -- Time: 6 -- Specie: 1
|-----------------------------------------------------------|
| Loop |  hHatOverLambda |     ALMISE      |      RMSE      |
|-----------------------------------------------------------|
     0  2.168975777E+000  0.000000000E+000  7.993276502E-005
     1  8.072809410E-001  1.560533083E-007  3.858883656E-005
     2  5.215368543E-001  1.025214803E-006  2.377629778E-005
     3  5.041596078E-001  4.130733312E-006  2.344650803E-005
    - Density convergence    6.1957E-03

GPKDE histogram statistics 
   Max count         :   1981.0000003044536     
   Max raw density   :   1981.0000003044536     
   Min count         :   0.0000000000000000     
   Min raw density   :   0.0000000000000000     
   Mean raw density  :   938.35725692252606     


GPKDE data points statistics 
   Mean coordinates                 :   57.095570468601807        101.46126555156349       0.50000000000000000     
   Std. dev. coordinates            :   21.366821193952170        42.027208607519746        0.0000000000000000     
   Std. sigma scale                 :   29.966445428141824     
   Global smoothing scale Silverman :   2.3148042614192490     

 GPKDE compute density 
   initialSmoothing   :   2.3148042614192490        2.3148042614192490        0.0000000000000000     
 GPKDE Optimization -- Time: 7 -- Specie: 1
|-----------------------------------------------------------|
| Loop |  hHatOverLambda |     ALMISE      |      RMSE      |
|-----------------------------------------------------------|
     0  2.314804261E+000  0.000000000E+000  8.597258310E-005
     1  8.322118736E-001  1.366763255E-007  4.019589646E-005
     2  5.261678157E-001  9.300735109E-007  2.409421155E-005
     3  5.054492232E-001  3.992651022E-006  2.369466899E-005
    - Density convergence    6.4064E-03

GPKDE histogram statistics 
   Max count         :   1994.0000003064513     
   Max raw density   :   1994.0000003064513     
   Min count         :   0.0000000000000000     
   Min raw density   :   0.0000000000000000     
   Mean raw density  :   889.92248075693021     


GPKDE data points statistics 
   Mean coordinates                 :   61.008964327051103        101.04212225179366       0.50000000000000000     
   Std. dev. coordinates            :   23.718196099101448        42.257450321602576        0.0000000000000000     
   Std. sigma scale                 :   31.658655899703124     
   Global smoothing scale Silverman :   2.4455216673318549     

 GPKDE compute density 
   initialSmoothing   :   2.4455216673318549        2.4455216673318549        0.0000000000000000     
 GPKDE Optimization -- Time: 8 -- Specie: 1
|-----------------------------------------------------------|
| Loop |  hHatOverLambda |     ALMISE      |      RMSE      |
|-----------------------------------------------------------|
     0  2.445521667E+000  0.000000000E+000  8.566531124E-005
     1  8.671845700E-001  1.185702704E-007  4.276846174E-005
     2  5.265826474E-001  8.216544173E-007  2.400627993E-005
     3  5.045323758E-001  3.984313548E-006  2.363044407E-005
    - Density convergence    8.7511E-03

GPKDE histogram statistics 
   Max count         :   2005.0000003081418     
   Max raw density   :   2005.0000003081418     
   Min count         :   0.0000000000000000     
   Min raw density   :   0.0000000000000000     
   Mean raw density  :   847.46128929121528     


GPKDE data points statistics 
   Mean coordinates                 :   64.949746870797611        100.79358953713862       0.50000000000000000     
   Std. dev. coordinates            :   25.781574618593122        42.501445897941032        0.0000000000000000     
   Std. sigma scale                 :   33.102178158179640     
   Global smoothing scale Silverman :   2.5570287689461484     

 GPKDE compute density 
   initialSmoothing   :   2.5570287689461484        2.5570287689461484        0.0000000000000000     
 GPKDE Optimization -- Time: 9 -- Specie: 1
|-----------------------------------------------------------|
| Loop |  hHatOverLambda |     ALMISE      |      RMSE      |
|-----------------------------------------------------------|
     0  2.557028769E+000  0.000000000E+000  8.898974892E-005
     1  8.889385020E-001  1.066352141E-007  4.315640383E-005
     2  5.289691520E-001  7.661095768E-007  2.383178905E-005
     3  5.045724829E-001  3.904978820E-006  2.342673795E-005
    - Density convergence    6.1754E-03

GPKDE histogram statistics 
   Max count         :   2015.0000003096784     
   Max raw density   :   2015.0000003096784     
   Min count         :   0.0000000000000000     
   Min raw density   :   0.0000000000000000     
   Mean raw density  :   805.68298540284354     


GPKDE data points statistics 
   Mean coordinates                 :   69.027412483327055        100.67281807658300       0.50000000000000000     
   Std. dev. coordinates            :   27.842009680373415        42.762455162383745        0.0000000000000000     
   Std. sigma scale                 :   34.504966172822463     
   Global smoothing scale Silverman :   2.6653892911158410     

 GPKDE compute density 
   initialSmoothing   :   2.6653892911158410        2.6653892911158410        0.0000000000000000     
 GPKDE Optimization -- Time: 10 -- Specie: 1
|-----------------------------------------------------------|
| Loop |  hHatOverLambda |     ALMISE      |      RMSE      |
|-----------------------------------------------------------|
     0  2.665389291E+000  0.000000000E+000  8.789020845E-005
     1  9.170747797E-001  9.527956899E-008  4.522309843E-005
     2  5.344924610E-001  6.700736705E-007  2.428435754E-005
     3  5.055224154E-001  3.987769510E-006  2.378755041E-005
    - Density convergence    7.0812E-03

GPKDE histogram statistics 
   Max count         :   2044.0000003141349     
   Max raw density   :   2044.0000003141349     
   Min count         :   0.0000000000000000     
   Min raw density   :   0.0000000000000000     
   Mean raw density  :   771.22726539790619     


GPKDE data points statistics 
   Mean coordinates                 :   73.179224660696732        100.61587818370607       0.50000000000000000     
   Std. dev. coordinates            :   29.888412519927851        43.042166879946720        0.0000000000000000     
   Std. sigma scale                 :   35.867283692237187     
   Global smoothing scale Silverman :   2.7706236075084627     

 GPKDE compute density 
   initialSmoothing   :   2.7706236075084627        2.7706236075084627        0.0000000000000000     
 GPKDE Optimization -- Time: 11 -- Specie: 1
|-----------------------------------------------------------|
| Loop |  hHatOverLambda |     ALMISE      |      RMSE      |
|-----------------------------------------------------------|
     0  2.770623608E+000  0.000000000E+000  9.024948656E-005
     1  9.161337865E-001  9.125106750E-008  4.456529395E-005
     2  5.357959753E-001  6.603118510E-007  2.389321208E-005
     3  5.076748530E-001  4.222897153E-006  2.345018229E-005
    - Bandwidth convergence    9.5570E-03

GPKDE histogram statistics 
   Max count         :   2010.0000003089101     
   Max raw density   :   2010.0000003089101     
   Min count         :   0.0000000000000000     
   Min raw density   :   0.0000000000000000     
   Mean raw density  :   734.29017171972339     


GPKDE data points statistics 
   Mean coordinates                 :   77.317964878898778        100.66030343061392       0.50000000000000000     
   Std. dev. coordinates            :   31.876298434545372        43.283480058107457        0.0000000000000000     
   Std. sigma scale                 :   37.144543712609078     
   Global smoothing scale Silverman :   2.8692875262967985     

 GPKDE compute density 
   initialSmoothing   :   2.8692875262967985        2.8692875262967985        0.0000000000000000     
 GPKDE Optimization -- Time: 12 -- Specie: 1
|-----------------------------------------------------------|
| Loop |  hHatOverLambda |     ALMISE      |      RMSE      |
|-----------------------------------------------------------|
     0  2.869287526E+000  0.000000000E+000  8.695896892E-005
     1  9.474439162E-001  8.033330071E-008  4.328681621E-005
     2  5.393358040E-001  5.839369613E-007  2.280480376E-005
     3  5.079104524E-001  3.833494857E-006  2.229784417E-005
    - Bandwidth convergence    9.9779E-03

GPKDE histogram statistics 
   Max count         :   2013.0000003093712     
   Max raw density   :   2013.0000003093712     
   Min count         :   0.0000000000000000     
   Min raw density   :   0.0000000000000000     
   Mean raw density  :   701.66964828911921     


GPKDE data points statistics 
   Mean coordinates                 :   81.417882571014331        100.73763117289327       0.50000000000000000     
   Std. dev. coordinates            :   33.865061982659739        43.562072294549175        0.0000000000000000     
   Std. sigma scale                 :   38.408752626816877     
   Global smoothing scale Silverman :   2.9669432922751087     

 GPKDE compute density 
   initialSmoothing   :   2.9669432922751087        2.9669432922751087        0.0000000000000000     
 GPKDE Optimization -- Time: 13 -- Specie: 1
|-----------------------------------------------------------|
| Loop |  hHatOverLambda |     ALMISE      |      RMSE      |
|-----------------------------------------------------------|
     0  2.966943292E+000  0.000000000E+000  8.464648495E-005
     1  9.559479498E-001  7.505839272E-008  4.253258063E-005
     2  5.429923831E-001  5.594798972E-007  2.210707314E-005
     3  5.097650374E-001  3.580181888E-006  2.158297692E-005
    - Bandwidth convergence    9.9446E-03

GPKDE histogram statistics 
   Max count         :   1925.0000002958479     
   Max raw density   :   1925.0000002958479     
   Min count         :   0.0000000000000000     
   Min raw density   :   0.0000000000000000     
   Mean raw density  :   671.44079896197013     


GPKDE data points statistics 
   Mean coordinates                 :   85.485268311673607        100.84561729690414       0.50000000000000000     
   Std. dev. coordinates            :   35.915115391278668        43.861935279319191        0.0000000000000000     
   Std. sigma scale                 :   39.690130597436251     
   Global smoothing scale Silverman :   3.0659253084769018     

 GPKDE compute density 
   initialSmoothing   :   3.0659253084769018        3.0659253084769018        0.0000000000000000     
 GPKDE Optimization -- Time: 14 -- Specie: 1
|-----------------------------------------------------------|
| Loop |  hHatOverLambda |     ALMISE      |      RMSE      |
|-----------------------------------------------------------|
     0  3.065925308E+000  0.000000000E+000  8.561793898E-005
     1  9.614494629E-001  7.069136698E-008  4.153615496E-005
     2  5.469289429E-001  5.294942392E-007  2.135937259E-005
     3  5.124077175E-001  3.541308562E-006  2.082054500E-005
     4  5.097725193E-001  6.928723842E-006  2.080502584E-005
    - Bandwidth convergence    8.3235E-03

GPKDE histogram statistics 
   Max count         :   1925.0000002958479     
   Max raw density   :   1925.0000002958479     
   Min count         :   0.0000000000000000     
   Min raw density   :   0.0000000000000000     
   Mean raw density  :   638.46988615347675     


GPKDE data points statistics 
   Mean coordinates                 :   89.616571849807173        101.06107986358090       0.50000000000000000     
   Std. dev. coordinates            :   38.239714924919966        44.112746846999833        0.0000000000000000     
   Std. sigma scale                 :   41.071387412460702     
   Global smoothing scale Silverman :   3.1726226199481622     

 GPKDE compute density 
   initialSmoothing   :   3.1726226199481622        3.1726226199481622        0.0000000000000000     
 GPKDE Optimization -- Time: 15 -- Specie: 1
|-----------------------------------------------------------|
| Loop |  hHatOverLambda |     ALMISE      |      RMSE      |
|-----------------------------------------------------------|
     0  3.172622620E+000  0.000000000E+000  8.303636168E-005
     1  9.754195989E-001  6.153007979E-008  4.066863893E-005
     2  5.542777045E-001  4.768207205E-007  2.085807293E-005
     3  5.150737686E-001  3.415570785E-006  2.021805380E-005
     4  5.111462476E-001  7.079006245E-006  2.016341992E-005
    - Density convergence    8.5255E-03

GPKDE histogram statistics 
   Max count         :   1930.0000002966162     
   Max raw density   :   1930.0000002966162     
   Min count         :   0.0000000000000000     
   Min raw density   :   0.0000000000000000     
   Mean raw density  :   610.87605460395014     


GPKDE data points statistics 
   Mean coordinates                 :   93.821014882792682        101.25071050277853       0.50000000000000000     
   Std. dev. coordinates            :   40.848044914507000        44.418425400775554        0.0000000000000000     
   Std. sigma scale                 :   42.595842940392181     
   Global smoothing scale Silverman :   3.2903815366959579     

 GPKDE compute density 
   initialSmoothing   :   3.2903815366959579        3.2903815366959579        0.0000000000000000     
 GPKDE Optimization -- Time: 16 -- Specie: 1
|-----------------------------------------------------------|
| Loop |  hHatOverLambda |     ALMISE      |      RMSE      |
|-----------------------------------------------------------|
     0  3.290381537E+000  0.000000000E+000  8.441626949E-005
     1  9.715477868E-001  5.765617155E-008  3.976556653E-005
     2  5.558592537E-001  4.503324527E-007  2.047765868E-005
     3  5.149712883E-001  3.213646446E-006  1.980072581E-005
     4  5.120855578E-001  7.569253462E-006  1.976334310E-005
    - Density convergence    8.5071E-03

GPKDE histogram statistics 
   Max count         :   1929.0000002964628     