
MODPATH-RW Version 0.0.1               
Program compiled Mar 30 2023 10:07:59 with GFORTRAN compiler (ver. 12.1.0)                

This program has been developed and published by the Hydrogeology
Group (GHS), Universitat Politècnica de Catalunya (UPC). It is free
to use and modify under the condition that neither the GHS nor UPC
shall be considered legally responsible for any wrongdoing or damages
derived from its use. The code is an extension of software originally
released by the U.S. Geological Survey (USGS), without endorsement
from this institution, explicit or implied. Their release conditions
also apply (see disclaimer below).

This software has been approved for release by the U.S. Geological
Survey (USGS). Although the software has been subjected to rigorous
review, the USGS reserves the right to update the software as needed
pursuant to further analysis and review. No warranty, expressed or
implied, is made by the USGS or the U.S. Government as to the
functionality of the software and related material nor shall the
fact of release constitute any such warranty. Furthermore, the
software is released on condition that neither the USGS nor the U.S.
Government shall be held liable for any damages resulting from its
authorized or unauthorized use. Also refer to the USGS Water
Resources Software User Rights Notice for complete use, copyright,
and distribution information.


MODPATH-RW name file data
-------------------------
   MPBAS File: mpathrw.mpbas
  GRBDIS File: mf6_model.dis.grb
    TDIS File: mf6_sim.tdis
    HEAD File: mf6_model_steady.hds
  BUDGET File: mf6_model_steady.bud
     DSP File: mpathrw.dsp
  RWOPTS File: mpathrw.rwopts
      IC File: mpathrw.ic.npx20
   GPKDE File: mpathrw.gpkde

Grid data
---------
Grid file type: MODFLOW-6 DIS binary grid file.
Time discretization file type: MODFLOW-6 time discretization file.
 # File generated by Flopy version 3.3.6 on 03/28/2023 at 09:17:49.

 Time discretization file data
 -----------------------------
 Stress period count =          1
 Period length:      100.00000 Time step count:         1 Time step multiplier:        1.00000

 The budget file was opened successfully.

 MODPATH basic data file data
 ----------------------------
 # # MPBAS package for MODPATH 7 generated by Flopy 3.3.6
 Aquifer head is set to  1.00000E+30 at cells with IDOMAIN = 0.
 Aquifer head is set to -1.00000E+30 at all dry cells when Newton-Raphson rewetting is not active.


                 POROSITY =  0.350000     FOR LAYER   1

 MODPATH-RW simulation file data
 -------------------------------
 # MPSIM package for MODPATH 7 generated by Flopy 3.3.6
RWPT with Timeseries Analysis (Simulation type = 5)
Forward tracking (Tracking direction =  1)
Stop particles when they enter weak sink cells. (Weak sink option = 2)
Let particles pass through weak source cells for backtracking simulations (Weak source option = 1)
No timeseries output, skip TimeseriesWriter (Timeseries output option = 2)
Particle groups with default mass and soluteid (ParticlesMassOption = 0)
Solutes with the same dispersion (SolutesOption= 0)
Reference time =   0.0000000E+00
Specify a limit for tracking time (Stoping time option =  3)
Stop time =   0.1501000E+03
The zone value for all cells = 1

The retardation factor for all cells = 1

Number of particle groups =     0

The simulation will be run with stoptime =   0.1501000E+03

 MODPATH-RW GPKDE file data
 --------------------------
GPKDE reconstruction is enabled
GPKDE reconstruction with kernel database
GPKDE output is requested to be expressed as resident concentration.
Porosity and retardation are spatially uniform, GPKDE output is given as concentration.

 MODPATH-RW OBS file data
 --------------------------
No observations were specified

 MODPATH-RW RWOPTS file data
 ---------------------------
RW time step will be selected with the MIN_ADV_DISP criteria.
RW advection integration is EULERIAN.
Random displacements for 2 dimensions.
Random displacements for X dimension.
Random displacements for Y dimension.

 MODPATH-RW IC file data
 -----------------------
Given number of initial conditions =     1
Processing initial condition:     1



                       IC           FOR LAYER   1
 READING ON UNIT  123 WITH FORMAT: (1000E15.6)         
Original particle mass for initial condition =   8.750000000E-004
Effective particle mass for initial condition =   7.936507937E-004
Retardation factor is unitary so total dissolved mass is the total mass.
Total accumulated mass for initial condition =   9.800000000E+002
Total number of particles for this initial condition =    1234800
Total number of particles on initial conditions =    1234800


 MODPATH-RW SRC file data
 ------------------------
SRC package was not specified in name file.

 Budget File Data
 ----------------
    Budget file type:  Unstructured grid
  Budget file format:  Compact
    Budget precision:  Double

 MODPATH-RW IMP file data
 ------------------------
IMP package was not specified in name file.

 MODPATH-RW SPC file data
 ------------------------
SPC package was not specified in name file.
ParticlesMassOption.ne.2. Will create a single solute and leave.

 MODPATH-RW DSP file data
 ------------------------
Given number of dispersion parameters/models =     1
Simulation is single dispersion, will read only first dispersion data.
Processing dispersion data:     1
Dispersion model is linear, isotropic: will read dmeff and dispersivities

           DMEFF          =   0.00000     FOR LAYER   1

          ALPHAL          =  2.000000E-02 FOR LAYER   1

         ALPHATH          =  2.000000E-03 FOR LAYER   1

 TransportModelData: verify SPC-DSP relations 
 ---------------------------------------------
Simulation is single dispersion. Is consistent.

------------------------------
 GPKDE module is initializing 
 GPKDE initializing Histogram 
   Histogram determines dimensions to be analyzed based on binSizes 
   Will compute Histogram considering            2  dimensions 
   binSize            :   1.0000000000000000        1.0000000000000000        0.0000000000000000     
   domainSize         :   1000.0000000000000        200.00000000000000        0.0000000000000000     
   domainOrigin       :   0.0000000000000000        0.0000000000000000        0.0000000000000000     
   Computed nBins     :        1000         200           1
   Dimensionality for reconstruction is determined from nBins 
   Will perform reconstruction in            2  dimensions.
 Initializing kernels database with parameters: 
  minHOverLambda         :  0.25000000000000000     
  maxHOverLambda         :   15.000000000000000     
  deltaHOverLambda       :   9.5217315400513772E-002
 Database is for kernels 2D 
 GPKDE module is initialized  
------------------------------



 Run particle tracking simulation ...

 ----------------------------------------------------------------------------------------------
 Processing Time Step     1 Period     1.  Time =  1.00000E+02  Steady-state flow                                                    
   (Cumulative step =      1)
 ----------------------------------------------------------------------------------------------

GPKDE histogram statistics 
   Max count         :   440.99999999841742     
   Max raw density   :   440.99999999841742     
   Min count         :   0.0000000000000000     
   Min raw density   :   0.0000000000000000     
   Mean raw density  :   440.99999999839349     


GPKDE data points statistics 
   Mean coordinates                 :   30.000000000000000        100.00000000000011       0.50000000000000000     
   Std. dev. coordinates            :   5.7734863270696071        40.414516505444382        0.0000000000000000     
   Std. sigma scale                 :   15.275230226065730     
   Global smoothing scale Silverman :   1.4747610575143211     

 GPKDE compute density 
   initialSmoothing   :   1.4747610575143211        1.4747610575143211        0.0000000000000000     
 GPKDE Optimization -- Time: 0 -- Specie: 1
|-----------------------------------------------------------|
| Loop |  hHatOverLambda |     ALMISE      |      RMSE      |
|-----------------------------------------------------------|
     0  1.474761058E+000  0.000000000E+000  4.730409947E-005
     1  8.823462011E-001  1.631976996E-006  3.210226350E-005
     2  6.833377120E-001  5.519296753E-006  2.202957961E-005
     3  6.090311065E-001  1.355644752E-005  1.991120429E-005
     4  6.169127915E-001  2.821095820E-005  1.960318530E-005
     5  6.065806118E-001  4.028681347E-005  1.886532818E-005
     6  6.556572715E-001  6.740982723E-005  1.983911175E-005
     7  5.946803708E-001  6.180146139E-005  1.915718120E-005
     8  6.234564742E-001  5.607967824E-005  1.897307870E-005
     9  6.616597553E-001  8.240313783E-005  2.047878176E-005
    10  5.788745209E-001  6.411746929E-005  1.950378788E-005
    11  6.129146492E-001  5.762753328E-005  1.896420564E-005
    12  6.549095034E-001  7.866748983E-005  1.898384157E-005
    13  6.558392499E-001  9.891884134E-005  2.412152512E-005
    14  5.668416934E-001  7.167554355E-005  2.098054062E-005
    15  5.828701678E-001  5.670014835E-005  1.908555802E-005
    16  6.219994564E-001  6.716503050E-005  1.891148371E-005
    17  6.514610041E-001  8.951027555E-005  2.071597665E-005
    18  5.890838809E-001  7.349543550E-005  1.902200130E-005
    19  6.389575813E-001  8.457228188E-005  1.911477839E-005
    20  6.388475716E-001  9.502491523E-005  1.962903759E-005
    - Max loops 

GPKDE histogram statistics 
   Max count         :   505.99999999818510     
   Max raw density   :   505.99999999818510     
   Min count         :   0.0000000000000000     
   Min raw density   :   0.0000000000000000     
   Mean raw density  :   374.86338797679190     


GPKDE data points statistics 
   Mean coordinates                 :   34.163600267774449        100.50482656774857       0.50000000000000000     
   Std. dev. coordinates            :   7.1518449456402244        41.025914726985278        0.0000000000000000     
   Std. sigma scale                 :   17.129243441566722     
   Global smoothing scale Silverman :   1.6537584572178012     

 GPKDE compute density 
   initialSmoothing   :   1.6537584572178012        1.6537584572178012        0.0000000000000000     
 GPKDE Optimization -- Time: 1 -- Specie: 1
|-----------------------------------------------------------|
| Loop |  hHatOverLambda |     ALMISE      |      RMSE      |
|-----------------------------------------------------------|
     0  1.653758457E+000  0.000000000E+000  5.361340039E-005
     1  9.105558757E-001  1.445812968E-006  3.629328456E-005
     2  6.641238242E-001  4.594866318E-006  2.588685442E-005
     3  5.598514375E-001  8.365688650E-006  2.148208402E-005
     4  5.452858026E-001  1.118317990E-005  2.090453722E-005
     5  5.379019202E-001  1.232369740E-005  2.081229924E-005
     6  5.372411283E-001  1.250245082E-005  2.077674659E-005
     7  5.358953163E-001  1.290970357E-005  2.072812962E-005
     8  5.360342911E-001  1.275591922E-005  2.069613597E-005
     9  5.351525830E-001  1.292197696E-005  2.069195879E-005
    - ALMISE convergence    1.2827E-05

GPKDE histogram statistics 
   Max count         :   529.99999999809938     
   Max raw density   :   529.99999999809938     
   Min count         :   0.0000000000000000     
   Min raw density   :   0.0000000000000000     
   Mean raw density  :   344.43514644227679     


GPKDE data points statistics 
   Mean coordinates                 :   38.102525448939083        101.07760541425104       0.50000000000000000     
   Std. dev. coordinates            :   9.3018970860765666        41.613276259186897        0.0000000000000000     
   Std. sigma scale                 :   19.674410110024386     
   Global smoothing scale Silverman :   1.8994838984697318     

 GPKDE compute density 
   initialSmoothing   :   1.8994838984697318        1.8994838984697318        0.0000000000000000     
 GPKDE Optimization -- Time: 2 -- Specie: 1
|-----------------------------------------------------------|
| Loop |  hHatOverLambda |     ALMISE      |      RMSE      |
|-----------------------------------------------------------|
     0  1.899483898E+000  0.000000000E+000  6.720914966E-005
     1  9.580594263E-001  1.197891413E-006  4.194292027E-005
     2  6.521156511E-001  4.228889398E-006  2.727647959E-005
     3  5.403495492E-001  8.754790509E-006  2.305281379E-005
     4  5.269672066E-001  1.285852204E-005  2.259718249E-005
     5  5.220775827E-001  1.481573468E-005  2.256734030E-005
     6  5.236441182E-001  1.585976172E-005  2.259819222E-005
     7  5.228507629E-001  1.644438299E-005  2.259398983E-005
     8  5.236045278E-001  1.662702836E-005  2.256032291E-005
    - ALMISE convergence    1.6779E-05

GPKDE histogram statistics 
   Max count         :   517.99999999814224     
   Max raw density   :   517.99999999814224     
   Min count         :   0.0000000000000000     
   Min raw density   :   0.0000000000000000     
   Mean raw density  :   323.75458835751550     


GPKDE data points statistics 
   Mean coordinates                 :   41.935499199723338        101.58361181225612       0.50000000000000000     
   Std. dev. coordinates            :   11.566071114388130        41.886442960459917        0.0000000000000000     
   Std. sigma scale                 :   22.010487909390864     
   Global smoothing scale Silverman :   2.1250226638331893     

 GPKDE compute density 
   initialSmoothing   :   2.1250226638331893        2.1250226638331893        0.0000000000000000     
 GPKDE Optimization -- Time: 3 -- Specie: 1
|-----------------------------------------------------------|
| Loop |  hHatOverLambda |     ALMISE      |      RMSE      |
|-----------------------------------------------------------|
     0  2.125022664E+000  0.000000000E+000  7.591387797E-005
     1  1.004293937E+000  1.003469159E-006  4.637100568E-005
     2  6.502441188E-001  3.892116238E-006  2.870964040E-005
     3  5.426171643E-001  9.771911516E-006  2.461425595E-005
     4  5.265587949E-001  1.551601757E-005  2.405193593E-005
     5  5.232693735E-001  1.966660206E-005  2.396139247E-005
     6  5.246286412E-001  2.243590372E-005  2.401765366E-005
    - Bandwidth convergence    9.0566E-03

GPKDE histogram statistics 
   Max count         :   554.99999999801003     
   Max raw density   :   554.99999999801003     
   Min count         :   0.0000000000000000     
   Min raw density   :   0.0000000000000000     
   Mean raw density  :   303.24165029360682     


GPKDE data points statistics 
   Mean coordinates                 :   45.618301447687649        101.93005396405135       0.50000000000000000     
   Std. dev. coordinates            :   13.824962654871760        41.875300619695686        0.0000000000000000     
   Std. sigma scale                 :   24.060849262418422     
   Global smoothing scale Silverman :   2.3229766738563966     

 GPKDE compute density 
   initialSmoothing   :   2.3229766738563966        2.3229766738563966        0.0000000000000000     
 GPKDE Optimization -- Time: 4 -- Specie: 1
|-----------------------------------------------------------|
| Loop |  hHatOverLambda |     ALMISE      |      RMSE      |
|-----------------------------------------------------------|
     0  2.322976674E+000  0.000000000E+000  8.116939027E-005
     1  1.032090783E+000  8.769243288E-007  4.860026303E-005
     2  6.464876844E-001  3.644953841E-006  2.952540155E-005
     3  5.455690693E-001  9.806069809E-006  2.531006797E-005
     4  5.288731083E-001  1.797682373E-005  2.484155965E-005
     5  5.252509537E-001  2.671746381E-005  2.475489495E-005
    - Bandwidth convergence    9.1125E-03

GPKDE histogram statistics 
   Max count         :   535.99999999807790     
   Max raw density   :   535.99999999807790     
   Min count         :   0.0000000000000000     
   Min raw density   :   0.0000000000000000     
   Mean raw density  :   287.69804286942406     


GPKDE data points statistics 
   Mean coordinates                 :   49.374248603656277        102.12355810331965       0.50000000000000000     
   Std. dev. coordinates            :   16.305924424377448        41.783327636152336        0.0000000000000000     
   Std. sigma scale                 :   26.102026408577967     
   Global smoothing scale Silverman :   2.5200439862369075     

 GPKDE compute density 
   initialSmoothing   :   2.5200439862369075        2.5200439862369075        0.0000000000000000     
 GPKDE Optimization -- Time: 5 -- Specie: 1
|-----------------------------------------------------------|
| Loop |  hHatOverLambda |     ALMISE      |      RMSE      |
|-----------------------------------------------------------|
     0  2.520043986E+000  0.000000000E+000  8.693813752E-005
     1  1.067101153E+000  7.541329143E-007  5.112696199E-005
     2  6.463261242E-001  3.318007352E-006  3.041580074E-005
     3  5.468561575E-001  9.517066023E-006  2.603919093E-005
     4  5.311631628E-001  1.738113215E-005  2.566009679E-005
     5  5.281458634E-001  2.524875891E-005  2.554944019E-005
    - Bandwidth convergence    9.0529E-03

GPKDE histogram statistics 
   Max count         :   527.99999999810655     
   Max raw density   :   527.99999999810655     
   Min count         :   0.0000000000000000     
   Min raw density   :   0.0000000000000000     
   Mean raw density  :   270.96774193451182     


GPKDE data points statistics 
   Mean coordinates                 :   53.212326945094745        101.91579527506582       0.50000000000000000     
   Std. dev. coordinates            :   18.840486286053547        41.839718698683811        0.0000000000000000     
   Std. sigma scale                 :   28.076336056453137     
   Global smoothing scale Silverman :   2.7106555149058948     

 GPKDE compute density 
   initialSmoothing   :   2.7106555149058948        2.7106555149058948        0.0000000000000000     
 GPKDE Optimization -- Time: 6 -- Specie: 1
|-----------------------------------------------------------|
| Loop |  hHatOverLambda |     ALMISE      |      RMSE      |
|-----------------------------------------------------------|
     0  2.710655515E+000  0.000000000E+000  9.445136214E-005
     1  1.112316201E+000  6.447348795E-007  5.257256757E-005
     2  6.430747087E-001  3.031902251E-006  2.941584685E-005
     3  5.464722009E-001  1.003992626E-005  2.550867336E-005
     4  5.318606375E-001  1.885063039E-005  2.508336977E-005
     5  5.294399850E-001  3.143386642E-005  2.503999230E-005
    - Bandwidth convergence    7.1350E-03

GPKDE histogram statistics 
   Max count         :   530.99999999809575     
   Max raw density   :   530.99999999809575     
   Min count         :   0.0000000000000000     
   Min raw density   :   0.0000000000000000     
   Mean raw density  :   256.60847880207234     


GPKDE data points statistics 
   Mean coordinates                 :   57.095179652426829        101.46055951786151       0.50000000000000000     
   Std. dev. coordinates            :   21.364707845275046        42.027757541742332        0.0000000000000000     
   Std. sigma scale                 :   29.965159123077921     
   Global smoothing scale Silverman :   2.8930136634881474     

 GPKDE compute density 
   initialSmoothing   :   2.8930136634881474        2.8930136634881474        0.0000000000000000     
 GPKDE Optimization -- Time: 7 -- Specie: 1
|-----------------------------------------------------------|
| Loop |  hHatOverLambda |     ALMISE      |      RMSE      |
|-----------------------------------------------------------|
     0  2.893013663E+000  0.000000000E+000  9.623821051E-005
     1  1.145811373E+000  5.710390541E-007  5.566557339E-005
     2  6.518911479E-001  2.744809462E-006  3.027290111E-005
     3  5.487763550E-001  9.858521810E-006  2.576177117E-005
     4  5.344716727E-001  1.831276039E-005  2.537561451E-005
     5  5.313196125E-001  2.633702826E-005  2.532709654E-005
    - Bandwidth convergence    8.5730E-03

GPKDE histogram statistics 
   Max count         :   542.99999999805289     
   Max raw density   :   542.99999999805289     
   Min count         :   0.0000000000000000     
   Min raw density   :   0.0000000000000000     
   Mean raw density  :   245.34075104223578     


GPKDE data points statistics 
   Mean coordinates                 :   61.011495908866657        101.04097503768082       0.50000000000000000     
   Std. dev. coordinates            :   23.720319122872549        42.258538982456322        0.0000000000000000     
   Std. sigma scale                 :   31.660480576425460     
   Global smoothing scale Silverman :   3.0566900220348874     

 GPKDE compute density 
   initialSmoothing   :   3.0566900220348874        3.0566900220348874        0.0000000000000000     
 GPKDE Optimization -- Time: 8 -- Specie: 1
|-----------------------------------------------------------|
| Loop |  hHatOverLambda |     ALMISE      |      RMSE      |
|-----------------------------------------------------------|
     0  3.056690022E+000  0.000000000E+000  1.006348490E-004
     1  1.207988709E+000  4.736126571E-007  5.787451471E-005
     2  6.598754809E-001  2.458065288E-006  3.050608499E-005
     3  5.511062204E-001  9.372123579E-006  2.569281176E-005
     4  5.351658215E-001  1.784869668E-005  2.529452868E-005
     5  5.323475566E-001  2.722924293E-005  2.527343041E-005
    - Bandwidth convergence    7.7801E-03

GPKDE histogram statistics 
   Max count         :   546.99999999803867     
   Max raw density   :   546.99999999803867     
   Min count         :   0.0000000000000000     
   Min raw density   :   0.0000000000000000     
   Mean raw density  :   234.44085817269274     


GPKDE data points statistics 
   Mean coordinates                 :   64.950403866096082        100.79318894813228       0.50000000000000000     
   Std. dev. coordinates            :   25.781858339287492        42.501810319933362        0.0000000000000000     
   Std. sigma scale                 :   33.102502214059122     
   Global smoothing scale Silverman :   3.1959113184606687     

 GPKDE compute density 
   initialSmoothing   :   3.1959113184606687        3.1959113184606687        0.0000000000000000     
 GPKDE Optimization -- Time: 9 -- Specie: 1
|-----------------------------------------------------------|
| Loop |  hHatOverLambda |     ALMISE      |      RMSE      |
|-----------------------------------------------------------|
     0  3.195911318E+000  0.000000000E+000  9.954963068E-005
     1  1.208652929E+000  4.458539358E-007  5.764436321E-005
     2  6.588081285E-001  2.386138975E-006  3.045352382E-005
     3  5.507344422E-001  9.270038187E-006  2.560237957E-005
     4  5.345398749E-001  1.923078847E-005  2.517398109E-005
     5  5.315725069E-001  4.498225044E-005  2.511799086E-005
    - Bandwidth convergence    8.9099E-03

GPKDE histogram statistics 
   Max count         :   556.99999999800286     
   Max raw density   :   556.99999999800286     
   Min count         :   0.0000000000000000     
   Min raw density   :   0.0000000000000000     
   Mean raw density  :   222.88808664180013     


GPKDE data points statistics 
   Mean coordinates                 :   69.028068284441829        100.67243972777806       0.50000000000000000     
   Std. dev. coordinates            :   27.841518164611315        42.762975846747615        0.0000000000000000     
   Std. sigma scale                 :   34.504871667781330     
   Global smoothing scale Silverman :   3.3313043585647732     

 GPKDE compute density 
   initialSmoothing   :   3.3313043585647732        3.3313043585647732        0.0000000000000000     
 GPKDE Optimization -- Time: 10 -- Specie: 1
|-----------------------------------------------------------|
| Loop |  hHatOverLambda |     ALMISE      |      RMSE      |
|-----------------------------------------------------------|
     0  3.331304359E+000  0.000000000E+000  1.022674162E-004
     1  1.237374460E+000  3.844811816E-007  5.863681882E-005
     2  6.696865981E-001  2.152649933E-006  3.138233164E-005
     3  5.549232160E-001  9.210813673E-006  2.607581183E-005
     4  5.377518922E-001  1.922852912E-005  2.563064697E-005
     5  5.346515242E-001  3.216590650E-005  2.559150697E-005
    - Bandwidth convergence    8.6890E-03

GPKDE histogram statistics 
   Max count         :   564.99999999797433     
   Max raw density   :   564.99999999797433     
   Min count         :   0.0000000000000000     
   Min raw density   :   0.0000000000000000     
   Mean raw density  :   212.63991734037779     


GPKDE data points statistics 
   Mean coordinates                 :   73.178752635953742        100.61571310557854       0.50000000000000000     
   Std. dev. coordinates            :   29.886251282187402        43.041031875358883        0.0000000000000000     
   Std. sigma scale                 :   35.865513994248197     
   Global smoothing scale Silverman :   3.4626688150464116     

 GPKDE compute density 
   initialSmoothing   :   3.4626688150464116        3.4626688150464116        0.0000000000000000     
 GPKDE Optimization -- Time: 11 -- Specie: 1
|-----------------------------------------------------------|
| Loop |  hHatOverLambda |     ALMISE      |      RMSE      |
|-----------------------------------------------------------|
     0  3.462668815E+000  0.000000000E+000  9.977854990E-005
     1  1.229002253E+000  3.638488494E-007  5.724370368E-005
     2  6.702870791E-001  2.073314598E-006  3.016165352E-005
     3  5.588154626E-001  9.611756929E-006  2.536190480E-005
     4  5.406674356E-001  2.406717944E-005  2.498127842E-005
     5  5.384672984E-001  4.266909834E-005  2.494925427E-005
     6  5.374933390E-001  6.433861606E-005  2.490249927E-005
     7  5.372092073E-001  8.096722392E-005  2.491975908E-005
     8  5.361770075E-001  1.006011281E-004  2.489913324E-005
     9  5.366858334E-001  1.139262111E-004  2.490814180E-005
    10  5.360395368E-001  1.229036369E-004  2.489179598E-005
    11  5.362475875E-001  1.208606668E-004  2.490353275E-005
    12  5.363015161E-001  1.252777298E-004  2.487965489E-005
    - ALMISE convergence    1.2424E-04

GPKDE histogram statistics 
   Max count         :   570.99999999795284     
   Max raw density   :   570.99999999795284     
   Min count         :   0.0000000000000000     
   Min raw density   :   0.0000000000000000     
   Mean raw density  :   204.47093889643588     


GPKDE data points statistics 
   Mean coordinates                 :   77.316542721285742        100.65993539599393       0.50000000000000000     
   Std. dev. coordinates            :   31.872331205919551        43.282097900796494        0.0000000000000000     
   Std. sigma scale                 :   37.141639161205866     
   Global smoothing scale Silverman :   3.5858734851489751     

 GPKDE compute density 
   initialSmoothing   :   3.5858734851489751        3.5858734851489751        0.0000000000000000     
 GPKDE Optimization -- Time: 12 -- Specie: 1
|-----------------------------------------------------------|
| Loop |  hHatOverLambda |     ALMISE      |      RMSE      |
|-----------------------------------------------------------|
     0  3.585873485E+000  0.000000000E+000  9.665051417E-005
     1  1.223909649E+000  3.432768647E-007  5.475865799E-005
     2  6.701081306E-001  2.014202270E-006  2.874471004E-005
     3  5.598801166E-001  9.352653063E-006  2.432965976E-005
     4  5.424221888E-001  2.273794299E-005  2.393377093E-005
     5  5.396132860E-001  4.535376081E-005  2.391596093E-005
    - Bandwidth convergence    9.3637E-03

GPKDE histogram statistics 
   Max count         :   562.99999999798149     
   Max raw density   :   562.99999999798149     
   Min count         :   0.0000000000000000     
   Min raw density   :   0.0000000000000000     
   Mean raw density  :   195.93779752389355     


GPKDE data points statistics 
   Mean coordinates                 :   81.417933258806315        100.73618051679077       0.50000000000000000     
   Std. dev. coordinates            :   33.862617145320797        43.560631683982969        0.0000000000000000     
   Std. sigma scale                 :   38.406731093950782     
   Global smoothing scale Silverman :   3.7080129415745859     

 GPKDE compute density 
   initialSmoothing   :   3.7080129415745859        3.7080129415745859        0.0000000000000000     
 GPKDE Optimization -- Time: 13 -- Specie: 1
|-----------------------------------------------------------|
| Loop |  hHatOverLambda |     ALMISE      |      RMSE      |
|-----------------------------------------------------------|
     0  3.708012942E+000  0.000000000E+000  9.847205546E-005
     1  1.233594013E+000  3.032419655E-007  5.387548210E-005
     2  6.748206183E-001  1.900442356E-006  2.836599736E-005
     3  5.639443185E-001  9.109888968E-006  2.382913129E-005
     4  5.451358394E-001  2.023954637E-005  2.341688511E-005
     5  5.419580754E-001  3.875235402E-005  2.337182742E-005
     6  5.410077311E-001  6.162232486E-005  2.336350694E-005
    - Bandwidth convergence    8.3943E-03

GPKDE histogram statistics 
   Max count         :   531.99999999809222     
   Max raw density   :   531.99999999809222     
   Min count         :   0.0000000000000000     
   Min raw density   :   0.0000000000000000     
   Mean raw density  :   186.94928084717358     


GPKDE data points statistics 
   Mean coordinates                 :   85.485124362500713        100.84281115233247       0.50000000000000000     
   Std. dev. coordinates            :   35.913410605853826        43.860984283446541        0.0000000000000000     
   Std. sigma scale                 :   39.688758334676045     
   Global smoothing scale Silverman :   3.8317874327811330     

 GPKDE compute density 
   initialSmoothing   :   3.8317874327811330        3.8317874327811330        0.0000000000000000     
 GPKDE Optimization -- Time: 14 -- Specie: 1
|-----------------------------------------------------------|