
MODPATH-RW Version 0.0.1               
Program compiled Mar 30 2023 10:07:59 with GFORTRAN compiler (ver. 12.1.0)                

This program has been developed and published by the Hydrogeology
Group (GHS), Universitat Politècnica de Catalunya (UPC). It is free
to use and modify under the condition that neither the GHS nor UPC
shall be considered legally responsible for any wrongdoing or damages
derived from its use. The code is an extension of software originally
released by the U.S. Geological Survey (USGS), without endorsement
from this institution, explicit or implied. Their release conditions
also apply (see disclaimer below).

This software has been approved for release by the U.S. Geological
Survey (USGS). Although the software has been subjected to rigorous
review, the USGS reserves the right to update the software as needed
pursuant to further analysis and review. No warranty, expressed or
implied, is made by the USGS or the U.S. Government as to the
functionality of the software and related material nor shall the
fact of release constitute any such warranty. Furthermore, the
software is released on condition that neither the USGS nor the U.S.
Government shall be held liable for any damages resulting from its
authorized or unauthorized use. Also refer to the USGS Water
Resources Software User Rights Notice for complete use, copyright,
and distribution information.


MODPATH-RW name file data
-------------------------
   MPBAS File: mpathrw.mpbas
  GRBDIS File: mf6_model.dis.grb
    TDIS File: mf6_sim.tdis
    HEAD File: mf6_model_steady.hds
  BUDGET File: mf6_model_steady.bud
     DSP File: mpathrw.dsp
  RWOPTS File: mpathrw.rwopts
      IC File: mpathrw.ic.npx4
   GPKDE File: mpathrw.gpkde

Grid data
---------
Grid file type: MODFLOW-6 DIS binary grid file.
Time discretization file type: MODFLOW-6 time discretization file.
 # File generated by Flopy version 3.3.6 on 03/28/2023 at 09:17:49.

 Time discretization file data
 -----------------------------
 Stress period count =          1
 Period length:      100.00000 Time step count:         1 Time step multiplier:        1.00000

 The budget file was opened successfully.

 MODPATH basic data file data
 ----------------------------
 # # MPBAS package for MODPATH 7 generated by Flopy 3.3.6
 Aquifer head is set to  1.00000E+30 at cells with IDOMAIN = 0.
 Aquifer head is set to -1.00000E+30 at all dry cells when Newton-Raphson rewetting is not active.


                 POROSITY =  0.350000     FOR LAYER   1

 MODPATH-RW simulation file data
 -------------------------------
 # MPSIM package for MODPATH 7 generated by Flopy 3.3.6
RWPT with Timeseries Analysis (Simulation type = 5)
Forward tracking (Tracking direction =  1)
Stop particles when they enter weak sink cells. (Weak sink option = 2)
Let particles pass through weak source cells for backtracking simulations (Weak source option = 1)
No timeseries output, skip TimeseriesWriter (Timeseries output option = 2)
Particle groups with default mass and soluteid (ParticlesMassOption = 0)
Solutes with the same dispersion (SolutesOption= 0)
Reference time =   0.0000000E+00
Specify a limit for tracking time (Stoping time option =  3)
Stop time =   0.1501000E+03
The zone value for all cells = 1

The retardation factor for all cells = 1

Number of particle groups =     0

The simulation will be run with stoptime =   0.1501000E+03

 MODPATH-RW GPKDE file data
 --------------------------
GPKDE reconstruction is enabled
GPKDE reconstruction with kernel database
GPKDE output is requested to be expressed as resident concentration.
Porosity and retardation are spatially uniform, GPKDE output is given as concentration.

 MODPATH-RW OBS file data
 --------------------------
No observations were specified

 MODPATH-RW RWOPTS file data
 ---------------------------
RW time step will be selected with the MIN_ADV_DISP criteria.
RW advection integration is EULERIAN.
Random displacements for 2 dimensions.
Random displacements for X dimension.
Random displacements for Y dimension.

 MODPATH-RW IC file data
 -----------------------
Given number of initial conditions =     1
Processing initial condition:     1



                       IC           FOR LAYER   1
 READING ON UNIT  123 WITH FORMAT: (1000E15.6)         
Original particle mass for initial condition =   9.000000000E-003
Effective particle mass for initial condition =   7.142857143E-003
Retardation factor is unitary so total dissolved mass is the total mass.
Total accumulated mass for initial condition =   9.800000000E+002
Total number of particles for this initial condition =     137200
Total number of particles on initial conditions =     137200


 MODPATH-RW SRC file data
 ------------------------
SRC package was not specified in name file.

 Budget File Data
 ----------------
    Budget file type:  Unstructured grid
  Budget file format:  Compact
    Budget precision:  Double

 MODPATH-RW IMP file data
 ------------------------
IMP package was not specified in name file.

 MODPATH-RW SPC file data
 ------------------------
SPC package was not specified in name file.
ParticlesMassOption.ne.2. Will create a single solute and leave.

 MODPATH-RW DSP file data
 ------------------------
Given number of dispersion parameters/models =     1
Simulation is single dispersion, will read only first dispersion data.
Processing dispersion data:     1
Dispersion model is linear, isotropic: will read dmeff and dispersivities

           DMEFF          =   0.00000     FOR LAYER   1

          ALPHAL          =  2.000000E-02 FOR LAYER   1

         ALPHATH          =  2.000000E-03 FOR LAYER   1

 TransportModelData: verify SPC-DSP relations 
 ---------------------------------------------
Simulation is single dispersion. Is consistent.

------------------------------
 GPKDE module is initializing 
 GPKDE initializing Histogram 
   Histogram determines dimensions to be analyzed based on binSizes 
   Will compute Histogram considering            2  dimensions 
   binSize            :   1.0000000000000000        1.0000000000000000        0.0000000000000000     
   domainSize         :   1000.0000000000000        200.00000000000000        0.0000000000000000     
   domainOrigin       :   0.0000000000000000        0.0000000000000000        0.0000000000000000     
   Computed nBins     :        1000         200           1
   Dimensionality for reconstruction is determined from nBins 
   Will perform reconstruction in            2  dimensions.
 Initializing kernels database with parameters: 
  minHOverLambda         :  0.25000000000000000     
  maxHOverLambda         :   15.000000000000000     
  deltaHOverLambda       :   9.5217315400513772E-002
 Database is for kernels 2D 
 GPKDE module is initialized  
------------------------------



 Run particle tracking simulation ...

 ----------------------------------------------------------------------------------------------
 Processing Time Step     1 Period     1.  Time =  1.00000E+02  Steady-state flow                                                    
   (Cumulative step =      1)
 ----------------------------------------------------------------------------------------------

GPKDE histogram statistics 
   Max count         :   49.000000000118341     
   Max raw density   :   49.000000000118341     
   Min count         :   0.0000000000000000     
   Min raw density   :   0.0000000000000000     
   Mean raw density  :   49.000000000117069     


GPKDE data points statistics 
   Mean coordinates                 :   30.000000000000000        100.00000000000000       0.50000000000000000     
   Std. dev. coordinates            :   5.7733554067855870        40.414497802806906        0.0000000000000000     
   Std. sigma scale                 :   15.275053499165216     
   Global smoothing scale Silverman :   2.1269488934568539     

 GPKDE compute density 
   initialSmoothing   :   2.1269488934568539        2.1269488934568539        0.0000000000000000     
 GPKDE Optimization -- Time: 0 -- Specie: 1
|-----------------------------------------------------------|
| Loop |  hHatOverLambda |     ALMISE      |      RMSE      |
|-----------------------------------------------------------|
     0  2.126948893E+000  0.000000000E+000  5.871796324E-005
     1  1.467227452E+000  7.050249839E-010  4.529507843E-005
     2  1.208893426E+000  1.742569086E-009  3.544323685E-005
     3  9.710810235E-001  2.831322979E-009  2.872708201E-005
     4  8.374220825E-001  4.687115207E-009  2.026810037E-005
     5  8.091822783E-001  8.121040435E-009  1.986546683E-005
     6  8.087538431E-001  1.241706759E-008  1.941944557E-005
     7  8.056559658E-001  1.838587764E-008  2.914398364E-005
     8  6.789506774E-001  1.300726822E-008  2.117443575E-005
     9  7.463468299E-001  1.318071338E-008  1.976335696E-005
    10  7.892926104E-001  1.872883656E-008  1.923410709E-005
    11  8.015809310E-001  2.422095357E-008  2.558712541E-005
    12  7.026345208E-001  1.911936616E-008  2.052974945E-005
    - ALMISE convergence    1.8951E-08

GPKDE histogram statistics 
   Max count         :   67.000000000161819     
   Max raw density   :   67.000000000161819     
   Min count         :   0.0000000000000000     
   Min raw density   :   0.0000000000000000     
   Mean raw density  :   42.821473158654797     


GPKDE data points statistics 
   Mean coordinates                 :   34.161423793066149        100.50356687495820       0.50000000000000000     
   Std. dev. coordinates            :   7.1516329990506593        41.025352267193995        0.0000000000000000     
   Std. sigma scale                 :   17.128872206649870     
   Global smoothing scale Silverman :   2.3850807323253451     

 GPKDE compute density 
   initialSmoothing   :   2.3850807323253451        2.3850807323253451        0.0000000000000000     
 GPKDE Optimization -- Time: 1 -- Specie: 1
|-----------------------------------------------------------|
| Loop |  hHatOverLambda |     ALMISE      |      RMSE      |
|-----------------------------------------------------------|
     0  2.385080732E+000  0.000000000E+000  7.213959435E-005
     1  1.510288016E+000  6.264870193E-010  5.921096351E-005
     2  1.191589075E+000  1.577846723E-009  5.107943273E-005
     3  9.838819117E-001  2.398764899E-009  4.595009593E-005
     4  8.728663175E-001  3.394582293E-009  4.217570414E-005
     5  7.947706303E-001  4.409397968E-009  3.935461567E-005
     6  7.570374884E-001  5.166166870E-009  3.751326715E-005
     7  7.324629689E-001  5.536219263E-009  3.652673853E-005
     8  7.198832036E-001  5.839214324E-009  3.597228649E-005
     9  7.113582682E-001  6.008264702E-009  3.533299788E-005
    10  7.067570115E-001  6.153939140E-009  3.518160396E-005
    - ALMISE convergence    6.1810E-09

GPKDE histogram statistics 
   Max count         :   70.000000000169067     
   Max raw density   :   70.000000000169067     
   Min count         :   0.0000000000000000     
   Min raw density   :   0.0000000000000000     
   Mean raw density  :   40.234604105668673     


GPKDE data points statistics 
   Mean coordinates                 :   38.101177826558121        101.07638774075363       0.50000000000000000     
   Std. dev. coordinates            :   9.3009113906770295        41.614044909846058        0.0000000000000000     
   Std. sigma scale                 :   19.673549357300342     
   Global smoothing scale Silverman :   2.7394099823064826     

 GPKDE compute density 
   initialSmoothing   :   2.7394099823064826        2.7394099823064826        0.0000000000000000     
 GPKDE Optimization -- Time: 2 -- Specie: 1
|-----------------------------------------------------------|
| Loop |  hHatOverLambda |     ALMISE      |      RMSE      |
|-----------------------------------------------------------|
     0  2.739409982E+000  0.000000000E+000  8.760551567E-005
     1  1.573374153E+000  5.304364961E-010  6.749511358E-005
     2  1.169263723E+000  1.466457520E-009  5.641488845E-005
     3  9.543705177E-001  2.381086091E-009  4.935906315E-005
     4  8.385866093E-001  3.485755920E-009  4.468546356E-005
     5  7.606822327E-001  4.754476989E-009  4.165225422E-005
     6  7.214521832E-001  5.653600578E-009  4.007855643E-005
     7  6.963909229E-001  6.267293502E-009  3.894048486E-005
     8  6.848543449E-001  6.576263509E-009  3.846583603E-005
     9  6.791087074E-001  6.781402932E-009  3.815226647E-005
    10  6.754747767E-001  6.872039112E-009  3.799589891E-005
    11  6.711460373E-001  6.965491748E-009  3.784413180E-005
    - ALMISE convergence    7.0097E-09

GPKDE histogram statistics 
   Max count         :   75.000000000181132     
   Max raw density   :   75.000000000181132     
   Min count         :   0.0000000000000000     
   Min raw density   :   0.0000000000000000     
   Mean raw density  :   38.291934133499815     


GPKDE data points statistics 
   Mean coordinates                 :   41.937420538913827        101.58468529724638       0.50000000000000000     
   Std. dev. coordinates            :   11.565247704050311        41.888518559230654        0.0000000000000000     
   Std. sigma scale                 :   22.010249728097389     
   Global smoothing scale Silverman :   3.0647798586397217     

 GPKDE compute density 
   initialSmoothing   :   3.0647798586397217        3.0647798586397217        0.0000000000000000     
 GPKDE Optimization -- Time: 3 -- Specie: 1
|-----------------------------------------------------------|
| Loop |  hHatOverLambda |     ALMISE      |      RMSE      |
|-----------------------------------------------------------|
     0  3.064779859E+000  0.000000000E+000  9.737075373E-005
     1  1.671831428E+000  4.332351721E-010  7.399883811E-005
     2  1.181692268E+000  1.286542345E-009  6.016634766E-005
     3  9.411931907E-001  2.301140007E-009  5.117393119E-005
     4  8.114464512E-001  3.720589203E-009  4.561792958E-005
     5  7.387694560E-001  5.384029166E-009  4.281947330E-005
     6  7.046972090E-001  6.671510681E-009  4.128310658E-005
     7  6.837117993E-001  7.228316821E-009  4.047020892E-005
     8  6.738144058E-001  7.587036516E-009  4.001759249E-005
     9  6.673278771E-001  7.835440633E-009  3.971936927E-005
    - ALMISE convergence    7.8513E-09

GPKDE histogram statistics 
   Max count         :   70.000000000169067     
   Max raw density   :   70.000000000169067     
   Min count         :   0.0000000000000000     
   Min raw density   :   0.0000000000000000     
   Mean raw density  :   36.238774432205389     


GPKDE data points statistics 
   Mean coordinates                 :   45.622121597404409        101.92960548640575       0.50000000000000000     
   Std. dev. coordinates            :   13.830535419415016        41.875886824979368        0.0000000000000000     
   Std. sigma scale                 :   24.065866615442957     
   Global smoothing scale Silverman :   3.3510107424889872     

 GPKDE compute density 
   initialSmoothing   :   3.3510107424889872        3.3510107424889872        0.0000000000000000     
 GPKDE Optimization -- Time: 4 -- Specie: 1
|-----------------------------------------------------------|
| Loop |  hHatOverLambda |     ALMISE      |      RMSE      |
|-----------------------------------------------------------|
     0  3.351010742E+000  0.000000000E+000  1.042654753E-004
     1  1.735403397E+000  3.700315048E-010  7.696041365E-005
     2  1.163462955E+000  1.201888384E-009  6.093768704E-005
     3  9.128210928E-001  2.307832551E-009  5.138691237E-005
     4  7.873413027E-001  3.940422847E-009  4.592706053E-005
     5  7.217537900E-001  5.944927070E-009  4.294874526E-005
     6  6.863303820E-001  7.694777651E-009  4.126069368E-005
     7  6.681033253E-001  9.021053885E-009  4.044619322E-005
     8  6.601755263E-001  9.838665992E-009  4.011631945E-005
     9  6.553562390E-001  1.028696060E-008  3.989135428E-005
    10  6.526277839E-001  1.048381679E-008  3.976611445E-005
    - ALMISE convergence    1.0487E-08

GPKDE histogram statistics 
   Max count         :   75.000000000181132     
   Max raw density   :   75.000000000181132     
   Min count         :   0.0000000000000000     
   Min raw density   :   0.0000000000000000     
   Mean raw density  :   34.760577653997849     


GPKDE data points statistics 
   Mean coordinates                 :   49.377498566369248        102.12404457165935       0.50000000000000000     
   Std. dev. coordinates            :   16.311544264346317        41.783045007910772        0.0000000000000000     
   Std. sigma scale                 :   26.106435761047713     
   Global smoothing scale Silverman :   3.6351463290847024     

 GPKDE compute density 
   initialSmoothing   :   3.6351463290847024        3.6351463290847024        0.0000000000000000     
 GPKDE Optimization -- Time: 5 -- Specie: 1
|-----------------------------------------------------------|
| Loop |  hHatOverLambda |     ALMISE      |      RMSE      |
|-----------------------------------------------------------|
     0  3.635146329E+000  0.000000000E+000  1.110393395E-004
     1  1.784095742E+000  3.146067088E-010  7.839733730E-005
     2  1.165216660E+000  1.088174125E-009  6.119556126E-005
     3  8.926800557E-001  2.281378253E-009  5.039742813E-005
     4  7.664214148E-001  4.117345804E-009  4.505395665E-005
     5  7.067322871E-001  6.529352034E-009  4.209826727E-005
     6  6.783069364E-001  8.834936819E-009  4.078292089E-005
     7  6.648883845E-001  1.079440420E-008  4.021585888E-005
     8  6.582954941E-001  1.263970561E-008  3.977199063E-005
     9  6.544201946E-001  1.369669478E-008  3.968537858E-005
    10  6.514655099E-001  1.420286583E-008  3.952073155E-005
    - ALMISE convergence    1.4282E-08

GPKDE histogram statistics 
   Max count         :   78.000000000188379     
   Max raw density   :   78.000000000188379     
   Min count         :   0.0000000000000000     
   Min raw density   :   0.0000000000000000     
   Mean raw density  :   33.116099444926171     


GPKDE data points statistics 
   Mean coordinates                 :   53.217577331713684        101.91406685455669       0.50000000000000000     
   Std. dev. coordinates            :   18.846414313949960        41.839248536833111        0.0000000000000000     
   Std. sigma scale                 :   28.080594945789191     
   Global smoothing scale Silverman :   3.9100347734180096     

 GPKDE compute density 
   initialSmoothing   :   3.9100347734180096        3.9100347734180096        0.0000000000000000     
 GPKDE Optimization -- Time: 6 -- Specie: 1
|-----------------------------------------------------------|
| Loop |  hHatOverLambda |     ALMISE      |      RMSE      |
|-----------------------------------------------------------|
     0  3.910034773E+000  0.000000000E+000  1.151236338E-004
     1  1.777807229E+000  2.748904367E-010  8.120646187E-005
     2  1.138327707E+000  1.063060658E-009  6.097479929E-005
     3  8.587033097E-001  2.369520656E-009  4.941651596E-005
     4  7.315233863E-001  4.629778444E-009  4.361575218E-005
     5  6.812047232E-001  7.808567993E-009  4.134717765E-005
     6  6.597388849E-001  1.191713359E-008  4.038399606E-005
     7  6.519221220E-001  1.591089556E-008  3.996294609E-005
     8  6.468431489E-001  2.000007722E-008  3.968646782E-005
     9  6.449780285E-001  2.280435979E-008  3.972041455E-005
    10  6.445637899E-001  2.586163774E-008  3.953534443E-005
    11  6.437246725E-001  2.790848266E-008  3.959364132E-005
    12  6.440535533E-001  2.869523299E-008  3.955656828E-005
    13  6.432585075E-001  2.805615792E-008  3.956747787E-005
    14  6.436646421E-001  2.859562396E-008  3.953244838E-005
    15  6.432708010E-001  2.762817218E-008  3.952146151E-005
    16  6.433505075E-001  2.842214019E-008  3.951781773E-005
    17  6.432157497E-001  2.809864717E-008  3.947550689E-005
    18  6.434941801E-001  2.873725833E-008  3.955581863E-005
    - ALMISE convergence    2.8914E-08

GPKDE histogram statistics 
   Max count         :   71.000000000171482     
   Max raw density   :   71.000000000171482     
   Min count         :   0.0000000000000000     
   Min raw density   :   0.0000000000000000     
   Mean raw density  :   31.751909280335404     


GPKDE data points statistics 
   Mean coordinates                 :   57.103500955782707        101.45668306781150       0.50000000000000000     
   Std. dev. coordinates            :   21.369388197928409        42.026910978887187        0.0000000000000000     
   Std. sigma scale                 :   29.968139339432131     
   Global smoothing scale Silverman :   4.1728626882026578     

 GPKDE compute density 
   initialSmoothing   :   4.1728626882026578        4.1728626882026578        0.0000000000000000     
 GPKDE Optimization -- Time: 7 -- Specie: 1
|-----------------------------------------------------------|
| Loop |  hHatOverLambda |     ALMISE      |      RMSE      |
|-----------------------------------------------------------|
     0  4.172862688E+000  0.000000000E+000  1.214187791E-004
     1  1.811183250E+000  2.362442925E-010  8.327026930E-005
     2  1.139505314E+000  9.896137534E-010  6.133731123E-005
     3  8.436294470E-001  2.361262350E-009  4.874655986E-005
     4  7.211618347E-001  4.746266600E-009  4.312259383E-005
     5  6.758227367E-001  6.988974620E-009  4.102631156E-005
     6  6.581233533E-001  8.991522726E-009  4.017684049E-005
     7  6.515017663E-001  1.094753686E-008  3.987265409E-005
     8  6.472839074E-001  1.175003086E-008  3.973201794E-005
     9  6.463374088E-001  1.316913455E-008  3.963487428E-005
    - ALMISE convergence    1.3163E-08

GPKDE histogram statistics 
   Max count         :   71.000000000171482     
   Max raw density   :   71.000000000171482     
   Min count         :   0.0000000000000000     
   Min raw density   :   0.0000000000000000     
   Mean raw density  :   30.577223088997020     


GPKDE data points statistics 
   Mean coordinates                 :   61.013951804916097        101.03466491475450       0.50000000000000000     
   Std. dev. coordinates            :   23.720248421229552        42.256448937303766        0.0000000000000000     
   Std. sigma scale                 :   31.659650443298435     
   Global smoothing scale Silverman :   4.4083942803398006     

 GPKDE compute density 
   initialSmoothing   :   4.4083942803398006        4.4083942803398006        0.0000000000000000     
 GPKDE Optimization -- Time: 8 -- Specie: 1
|-----------------------------------------------------------|
| Loop |  hHatOverLambda |     ALMISE      |      RMSE      |
|-----------------------------------------------------------|
     0  4.408394280E+000  0.000000000E+000  1.267762185E-004
     1  1.790190344E+000  2.041644684E-010  8.306367976E-005
     2  1.122259383E+000  9.943320504E-010  6.100178485E-005
     3  8.221052927E-001  2.360831444E-009  4.779525792E-005
     4  7.072193737E-001  4.723354524E-009  4.222452522E-005
     5  6.673937018E-001  7.187955089E-009  4.042615534E-005
     6  6.551214145E-001  9.478261430E-009  3.988467076E-005
     7  6.486713292E-001  1.164748477E-008  3.949552654E-005
     8  6.451940645E-001  1.304688604E-008  3.932206237E-005
     9  6.431942229E-001  1.330083621E-008  3.925366111E-005
    10  6.424786737E-001  1.440275538E-008  3.922981410E-005
    11  6.418859885E-001  1.383839046E-008  3.917280344E-005
    12  6.418647502E-001  1.472189986E-008  3.921377375E-005
    13  6.415348982E-001  1.407250786E-008  3.910732170E-005
    14  6.418989913E-001  1.474507242E-008  3.915191312E-005
    15  6.408290521E-001  1.421967786E-008  3.911540296E-005
    16  6.415664611E-001  1.501742855E-008  3.910733200E-005
    17  6.410867484E-001  1.446120534E-008  3.909512287E-005
    18  6.414255347E-001  1.497768633E-008  3.910165752E-005
    19  6.405413493E-001  1.425614689E-008  3.909902758E-005
    20  6.417327866E-001  1.506276272E-008  3.912523938E-005
    - Max loops 

GPKDE histogram statistics 
   Max count         :   73.000000000176314     
   Max raw density   :   73.000000000176314     
   Min count         :   0.0000000000000000     
   Min raw density   :   0.0000000000000000     
   Mean raw density  :   29.222577209867779     


GPKDE data points statistics 
   Mean coordinates                 :   64.955683037352799        100.78867741033318       0.50000000000000000     
   Std. dev. coordinates            :   25.788627348106843        42.503856202625201        0.0000000000000000     
   Std. sigma scale                 :   33.107644260306728     
   Global smoothing scale Silverman :   4.6100177212649971     

 GPKDE compute density 
   initialSmoothing   :   4.6100177212649971        4.6100177212649971        0.0000000000000000     
 GPKDE Optimization -- Time: 9 -- Specie: 1
|-----------------------------------------------------------|
| Loop |  hHatOverLambda |     ALMISE      |      RMSE      |
|-----------------------------------------------------------|
     0  4.610017721E+000  0.000000000E+000  1.255330391E-004
     1  1.756148512E+000  1.949937151E-010  8.175376855E-005
     2  1.108681333E+000  9.952843766E-010  6.019855805E-005
     3  8.128212884E-001  2.355756741E-009  4.744329236E-005
     4  7.029586675E-001  4.599050906E-009  4.196802066E-005
     5  6.639079437E-001  6.730311294E-009  4.001903448E-005
     6  6.500991749E-001  9.427594797E-009  3.918724705E-005
     7  6.433577397E-001  1.204811959E-008  3.893490468E-005
     8  6.390017559E-001  1.182467337E-008  3.863412789E-005
     9  6.388886153E-001  1.473922020E-008  3.865679728E-005
    10  6.384516378E-001  1.605303555E-008  3.862820740E-005
    11  6.378265487E-001  1.900988367E-008  3.861882823E-005
    12  6.371470917E-001  2.028983235E-008  3.863230033E-005
    13  6.359879229E-001  1.550787386E-008  3.858243912E-005
    14  6.369460516E-001  1.780806869E-008  3.855409580E-005
    15  6.374969546E-001  1.829610852E-008  3.857836721E-005
    16  6.371772219E-001  2.025651542E-008  3.853807191E-005
    - ALMISE convergence    2.0086E-08

GPKDE histogram statistics 
   Max count         :   70.000000000169067     
   Max raw density   :   70.000000000169067     
   Min count         :   0.0000000000000000     
   Min raw density   :   0.0000000000000000     
   Mean raw density  :   28.224645134813599     


GPKDE data points statistics 
   Mean coordinates                 :   69.035438500578749        100.66646298942786       0.50000000000000000     
   Std. dev. coordinates            :   27.852987662508180        42.767918396289474        0.0000000000000000     
   Std. sigma scale                 :   34.513972582752736     
   Global smoothing scale Silverman :   4.8058395211314942     

 GPKDE compute density 
   initialSmoothing   :   4.8058395211314942        4.8058395211314942        0.0000000000000000     
 GPKDE Optimization -- Time: 10 -- Specie: 1
|-----------------------------------------------------------|
| Loop |  hHatOverLambda |     ALMISE      |      RMSE      |
|-----------------------------------------------------------|
     0  4.805839521E+000  0.000000000E+000  1.278406061E-004
     1  1.762760911E+000  1.748391250E-010  8.178288390E-005
     2  1.118006687E+000  9.355022620E-010  6.040914767E-005
     3  8.196560768E-001  2.307830090E-009  4.730066549E-005
     4  7.097214093E-001  4.947715311E-009  4.192443358E-005
     5  6.669721836E-001  7.724556759E-009  3.983255763E-005
     6  6.520818572E-001  1.128254383E-008  3.912226371E-005
     7  6.456605607E-001  1.521015852E-008  3.883158082E-005
     8  6.431125842E-001  1.802732190E-008  3.869970863E-005
     9  6.420115140E-001  1.951192759E-008  3.861251884E-005
    10  6.408844944E-001  2.314427256E-008  3.854353186E-005
    11  6.407018098E-001  2.400827906E-008  3.856900942E-005
    12  6.396403743E-001  2.443188528E-008  3.853174163E-005
    - ALMISE convergence    2.4576E-08

GPKDE histogram statistics 
   Max count         :   73.000000000176314     
   Max raw density   :   73.000000000176314     
   Min count         :   0.0000000000000000     
   Min raw density   :   0.0000000000000000     
   Mean raw density  :   26.775956284217109     


GPKDE data points statistics 
   Mean coordinates                 :   73.191391584901410        100.61089400293532       0.50000000000000000     
   Std. dev. coordinates            :   29.896227140557553        43.046032895582755        0.0000000000000000     
   Std. sigma scale                 :   35.873583274413143     
   Global smoothing scale Silverman :   4.9951562038074178     

 GPKDE compute density 
   initialSmoothing   :   4.9951562038074178        4.9951562038074178        0.0000000000000000     
 GPKDE Optimization -- Time: 11 -- Specie: 1
|-----------------------------------------------------------|
| Loop |  hHatOverLambda |     ALMISE      |      RMSE      |
|-----------------------------------------------------------|
     0  4.995156204E+000  0.000000000E+000  1.247205290E-004
     1  1.722521509E+000  1.702728240E-010  7.946496119E-005
     2  1.104566036E+000  9.312762087E-010  5.842838588E-005
     3  8.149245633E-001  2.264670791E-009  4.529812835E-005
     4  7.075798718E-001  5.378250136E-009  4.033679008E-005
     5  6.684463420E-001  9.012349070E-009  3.849997686E-005
     6  6.570871229E-001  1.331568648E-008  3.784241004E-005
     7  6.492254525E-001  1.846240067E-008  3.758856468E-005
     8  6.463061546E-001  2.411186283E-008  3.742956544E-005
     9  6.475645986E-001  2.656248598E-008  3.743575817E-005
    10  6.471605486E-001  2.692506375E-008  3.736761578E-005
    11  6.468388857E-001  2.510248651E-008  3.741085214E-005
    12  6.459356073E-001  2.587869048E-008  3.735880014E-005
    13  6.463268972E-001  2.639274341E-008  3.736845968E-005
    14  6.470652033E-001  2.728822351E-008  3.736037669E-005
    15  6.470942193E-001  2.676208428E-008  3.739553824E-005
    16  6.444814276E-001  2.761863639E-008  3.750400263E-005
    17  6.401990917E-001  2.731480811E-008  3.723452213E-005