
MODPATH-RW Version 0.0.1               
Program compiled Mar 30 2023 10:07:59 with GFORTRAN compiler (ver. 12.1.0)                

This program has been developed and published by the Hydrogeology
Group (GHS), Universitat Politècnica de Catalunya (UPC). It is free
to use and modify under the condition that neither the GHS nor UPC
shall be considered legally responsible for any wrongdoing or damages
derived from its use. The code is an extension of software originally
released by the U.S. Geological Survey (USGS), without endorsement
from this institution, explicit or implied. Their release conditions
also apply (see disclaimer below).

This software has been approved for release by the U.S. Geological
Survey (USGS). Although the software has been subjected to rigorous
review, the USGS reserves the right to update the software as needed
pursuant to further analysis and review. No warranty, expressed or
implied, is made by the USGS or the U.S. Government as to the
functionality of the software and related material nor shall the
fact of release constitute any such warranty. Furthermore, the
software is released on condition that neither the USGS nor the U.S.
Government shall be held liable for any damages resulting from its
authorized or unauthorized use. Also refer to the USGS Water
Resources Software User Rights Notice for complete use, copyright,
and distribution information.


MODPATH-RW name file data
-------------------------
   MPBAS File: mpathrw.mpbas
  GRBDIS File: mf6_model.dis.grb
    TDIS File: mf6_sim.tdis
    HEAD File: mf6_model_steady.hds
  BUDGET File: mf6_model_steady.bud
     DSP File: mpathrw.dsp
  RWOPTS File: mpathrw.rwopts
      IC File: mpathrw.ic.npx4
   GPKDE File: mpathrw.gpkde

Grid data
---------
Grid file type: MODFLOW-6 DIS binary grid file.
Time discretization file type: MODFLOW-6 time discretization file.
 # File generated by Flopy version 3.3.6 on 03/28/2023 at 09:17:49.

 Time discretization file data
 -----------------------------
 Stress period count =          1
 Period length:      100.00000 Time step count:         1 Time step multiplier:        1.00000

 The budget file was opened successfully.

 MODPATH basic data file data
 ----------------------------
 # # MPBAS package for MODPATH 7 generated by Flopy 3.3.6
 Aquifer head is set to  1.00000E+30 at cells with IDOMAIN = 0.
 Aquifer head is set to -1.00000E+30 at all dry cells when Newton-Raphson rewetting is not active.


                 POROSITY =  0.350000     FOR LAYER   1

 MODPATH-RW simulation file data
 -------------------------------
 # MPSIM package for MODPATH 7 generated by Flopy 3.3.6
RWPT with Timeseries Analysis (Simulation type = 5)
Forward tracking (Tracking direction =  1)
Stop particles when they enter weak sink cells. (Weak sink option = 2)
Let particles pass through weak source cells for backtracking simulations (Weak source option = 1)
No timeseries output, skip TimeseriesWriter (Timeseries output option = 2)
Particle groups with default mass and soluteid (ParticlesMassOption = 0)
Solutes with the same dispersion (SolutesOption= 0)
Reference time =   0.0000000E+00
Specify a limit for tracking time (Stoping time option =  3)
Stop time =   0.1501000E+03
The zone value for all cells = 1

The retardation factor for all cells = 1

Number of particle groups =     0

The simulation will be run with stoptime =   0.1501000E+03

 MODPATH-RW GPKDE file data
 --------------------------
GPKDE reconstruction is enabled
GPKDE reconstruction with kernel database
GPKDE output is requested to be expressed as resident concentration.
Porosity and retardation are spatially uniform, GPKDE output is given as concentration.

 MODPATH-RW OBS file data
 --------------------------
No observations were specified

 MODPATH-RW RWOPTS file data
 ---------------------------
RW time step will be selected with the MIN_ADV_DISP criteria.
RW advection integration is EULERIAN.
Random displacements for 2 dimensions.
Random displacements for X dimension.
Random displacements for Y dimension.

 MODPATH-RW IC file data
 -----------------------
Given number of initial conditions =     1
Processing initial condition:     1



                       IC           FOR LAYER   1
 READING ON UNIT  123 WITH FORMAT: (1000E15.6)         
Original particle mass for initial condition =   9.000000000E-003
Effective particle mass for initial condition =   7.142857143E-003
Retardation factor is unitary so total dissolved mass is the total mass.
Total accumulated mass for initial condition =   9.800000000E+002
Total number of particles for this initial condition =     137200
Total number of particles on initial conditions =     137200


 MODPATH-RW SRC file data
 ------------------------
SRC package was not specified in name file.

 Budget File Data
 ----------------
    Budget file type:  Unstructured grid
  Budget file format:  Compact
    Budget precision:  Double

 MODPATH-RW IMP file data
 ------------------------
IMP package was not specified in name file.

 MODPATH-RW SPC file data
 ------------------------
SPC package was not specified in name file.
ParticlesMassOption.ne.2. Will create a single solute and leave.

 MODPATH-RW DSP file data
 ------------------------
Given number of dispersion parameters/models =     1
Simulation is single dispersion, will read only first dispersion data.
Processing dispersion data:     1
Dispersion model is linear, isotropic: will read dmeff and dispersivities

           DMEFF          =   0.00000     FOR LAYER   1

          ALPHAL          =  2.000000E-02 FOR LAYER   1

         ALPHATH          =  2.000000E-03 FOR LAYER   1

 TransportModelData: verify SPC-DSP relations 
 ---------------------------------------------
Simulation is single dispersion. Is consistent.

------------------------------
 GPKDE module is initializing 
 GPKDE initializing Histogram 
   Histogram determines dimensions to be analyzed based on binSizes 
   Will compute Histogram considering            2  dimensions 
   binSize            :   1.0000000000000000        1.0000000000000000        0.0000000000000000     
   domainSize         :   1000.0000000000000        200.00000000000000        0.0000000000000000     
   domainOrigin       :   0.0000000000000000        0.0000000000000000        0.0000000000000000     
   Computed nBins     :        1000         200           1
   Dimensionality for reconstruction is determined from nBins 
   Will perform reconstruction in            2  dimensions.
 Initializing kernels database with parameters: 
  minHOverLambda         :  0.25000000000000000     
  maxHOverLambda         :   15.000000000000000     
  deltaHOverLambda       :   9.5217315400513772E-002
 Database is for kernels 2D 
 GPKDE module is initialized  
------------------------------



 Run particle tracking simulation ...

 ----------------------------------------------------------------------------------------------
 Processing Time Step     1 Period     1.  Time =  1.00000E+02  Steady-state flow                                                    
   (Cumulative step =      1)
 ----------------------------------------------------------------------------------------------

GPKDE histogram statistics 
   Max count         :   49.000000000118341     
   Max raw density   :   49.000000000118341     
   Min count         :   0.0000000000000000     
   Min raw density   :   0.0000000000000000     
   Mean raw density  :   49.000000000117069     


GPKDE data points statistics 
   Mean coordinates                 :   30.000000000000000        100.00000000000000       0.50000000000000000     
   Std. dev. coordinates            :   5.7733554067855870        40.414497802806906        0.0000000000000000     
   Std. sigma scale                 :   15.275053499165216     
   Global smoothing scale Silverman :   2.1269488934568539     

 GPKDE compute density 
   initialSmoothing   :   2.1269488934568539        2.1269488934568539        0.0000000000000000     
 GPKDE Optimization -- Time: 0 -- Specie: 1
|-----------------------------------------------------------|
| Loop |  hHatOverLambda |     ALMISE      |      RMSE      |
|-----------------------------------------------------------|
     0  2.126948893E+000  0.000000000E+000  5.871796324E-005
     1  1.467227452E+000  7.050249839E-010  4.529507843E-005
     2  1.208893426E+000  1.742569086E-009  3.544323685E-005
     3  9.710810235E-001  2.831322979E-009  2.872708201E-005
     4  8.374220825E-001  4.687115207E-009  2.026810037E-005
     5  8.091822783E-001  8.121040435E-009  1.986546683E-005
     6  8.087538431E-001  1.241706759E-008  1.941944557E-005
     7  8.056559658E-001  1.838587764E-008  2.914398364E-005
     8  6.789506774E-001  1.300726822E-008  2.117443575E-005
     9  7.463468299E-001  1.318071338E-008  1.976335696E-005
    10  7.892926104E-001  1.872883656E-008  1.923410709E-005
    11  8.015809310E-001  2.422095357E-008  2.558712541E-005
    12  7.026345208E-001  1.911936616E-008  2.052974945E-005
    - ALMISE convergence    1.8951E-08

GPKDE histogram statistics 
   Max count         :   68.000000000164235     
   Max raw density   :   68.000000000164235     
   Min count         :   0.0000000000000000     
   Min raw density   :   0.0000000000000000     
   Mean raw density  :   42.781415653361506     


GPKDE data points statistics 
   Mean coordinates                 :   34.164459958549365        100.50509515335324       0.50000000000000000     
   Std. dev. coordinates            :   7.1515266571093985        41.025388939752254        0.0000000000000000     
   Std. sigma scale                 :   17.128752512104299     
   Global smoothing scale Silverman :   2.3850640656615414     

 GPKDE compute density 
   initialSmoothing   :   2.3850640656615414        2.3850640656615414        0.0000000000000000     
 GPKDE Optimization -- Time: 1 -- Specie: 1
|-----------------------------------------------------------|
| Loop |  hHatOverLambda |     ALMISE      |      RMSE      |
|-----------------------------------------------------------|
     0  2.385064066E+000  0.000000000E+000  7.254528789E-005
     1  1.510209949E+000  6.263322201E-010  5.986811617E-005
     2  1.193583598E+000  1.571332331E-009  5.178725425E-005
     3  9.863612293E-001  2.385767504E-009  4.658850694E-005
     4  8.754023697E-001  3.375265398E-009  4.278768444E-005
     5  7.958767162E-001  4.402556143E-009  4.008243433E-005
     6  7.588542896E-001  5.128570223E-009  3.841289680E-005
     7  7.333489401E-001  5.541900304E-009  3.716660848E-005
     8  7.191877672E-001  5.831026546E-009  3.667248394E-005
     9  7.116650545E-001  6.033914942E-009  3.629263700E-005
    10  7.077052285E-001  6.120609797E-009  3.596066001E-005
    - ALMISE convergence    6.1694E-09

GPKDE histogram statistics 
   Max count         :   71.000000000171482     
   Max raw density   :   71.000000000171482     
   Min count         :   0.0000000000000000     
   Min raw density   :   0.0000000000000000     
   Mean raw density  :   40.258215962538117     


GPKDE data points statistics 
   Mean coordinates                 :   38.104347570956847        101.07637349888513       0.50000000000000000     
   Std. dev. coordinates            :   9.3009084869963221        41.613220138630282        0.0000000000000000     
   Std. sigma scale                 :   19.673351325044564     
   Global smoothing scale Silverman :   2.7393824076412079     

 GPKDE compute density 
   initialSmoothing   :   2.7393824076412079        2.7393824076412079        0.0000000000000000     
 GPKDE Optimization -- Time: 2 -- Specie: 1
|-----------------------------------------------------------|
| Loop |  hHatOverLambda |     ALMISE      |      RMSE      |
|-----------------------------------------------------------|
     0  2.739382408E+000  0.000000000E+000  8.793203667E-005
     1  1.573603139E+000  5.305672464E-010  6.760700702E-005
     2  1.171229414E+000  1.462623160E-009  5.657853582E-005
     3  9.546995592E-001  2.381050327E-009  4.927496571E-005
     4  8.392647764E-001  3.529565280E-009  4.465111512E-005
     5  7.607439656E-001  4.854441567E-009  4.161907964E-005
     6  7.217739131E-001  5.762916924E-009  4.006292925E-005
     7  6.977212385E-001  6.436720801E-009  3.912883402E-005
     8  6.887380461E-001  6.713501071E-009  3.856940520E-005
     9  6.803794652E-001  6.848624404E-009  3.824190320E-005
    10  6.781086306E-001  6.942161842E-009  3.802463718E-005
    11  6.746420067E-001  7.040547046E-009  3.793031043E-005
    - ALMISE convergence    7.0478E-09

GPKDE histogram statistics 
   Max count         :   74.000000000178716     
   Max raw density   :   74.000000000178716     
   Min count         :   0.0000000000000000     
   Min raw density   :   0.0000000000000000     
   Mean raw density  :   38.174735670653853     


GPKDE data points statistics 
   Mean coordinates                 :   41.938076540609806        101.58187742928698       0.50000000000000000     
   Std. dev. coordinates            :   11.564789034624047        41.887908682853613        0.0000000000000000     
   Std. sigma scale                 :   22.009653041763261     
   Global smoothing scale Silverman :   3.0646967740640649     

 GPKDE compute density 
   initialSmoothing   :   3.0646967740640649        3.0646967740640649        0.0000000000000000     
 GPKDE Optimization -- Time: 3 -- Specie: 1
|-----------------------------------------------------------|
| Loop |  hHatOverLambda |     ALMISE      |      RMSE      |
|-----------------------------------------------------------|
     0  3.064696774E+000  0.000000000E+000  9.716055162E-005
     1  1.672070490E+000  4.330357378E-010  7.408856351E-005
     2  1.182511518E+000  1.283228765E-009  6.045372088E-005
     3  9.430731948E-001  2.287920997E-009  5.141250017E-005
     4  8.138499125E-001  3.742063052E-009  4.593928201E-005
     5  7.420021618E-001  5.456000547E-009  4.315678450E-005
     6  7.091225393E-001  6.841699998E-009  4.163514190E-005
     7  6.865846741E-001  7.692021133E-009  4.061752252E-005
     8  6.771958082E-001  8.357672482E-009  4.016640058E-005
     9  6.692991203E-001  8.660217354E-009  3.980852581E-005
    10  6.660470228E-001  8.933793136E-009  3.969252177E-005
    11  6.628710376E-001  9.172988965E-009  3.959501467E-005
    - ALMISE convergence    9.1989E-09

GPKDE histogram statistics 
   Max count         :   71.000000000171482     
   Max raw density   :   71.000000000171482     
   Min count         :   0.0000000000000000     
   Min raw density   :   0.0000000000000000     
   Mean raw density  :   36.363636363723749     


GPKDE data points statistics 
   Mean coordinates                 :   45.619341788659085        101.92833400923909       0.50000000000000000     
   Std. dev. coordinates            :   13.825300216811014        41.877093633487426        0.0000000000000000     
   Std. sigma scale                 :   24.061658124295359     
   Global smoothing scale Silverman :   3.3504247382835035     

 GPKDE compute density 
   initialSmoothing   :   3.3504247382835035        3.3504247382835035        0.0000000000000000     
 GPKDE Optimization -- Time: 4 -- Specie: 1
|-----------------------------------------------------------|
| Loop |  hHatOverLambda |     ALMISE      |      RMSE      |
|-----------------------------------------------------------|
     0  3.350424738E+000  0.000000000E+000  1.041281637E-004
     1  1.734105599E+000  3.704589115E-010  7.696014645E-005
     2  1.165172889E+000  1.199770119E-009  6.084387719E-005
     3  9.136800913E-001  2.308270118E-009  5.107745743E-005
     4  7.870613952E-001  4.007355039E-009  4.549108814E-005
     5  7.222035087E-001  6.053555602E-009  4.256787239E-005
     6  6.865677496E-001  7.776677118E-009  4.094156442E-005
     7  6.688812448E-001  8.986077259E-009  4.007419931E-005
     8  6.605241185E-001  9.815330457E-009  3.977600546E-005
     9  6.552500649E-001  1.019013420E-008  3.958219996E-005
    10  6.526925227E-001  1.059240114E-008  3.944028920E-005
    11  6.510083299E-001  1.071305914E-008  3.940555374E-005
    12  6.505596591E-001  1.100510366E-008  3.930254963E-005
    13  6.507036987E-001  1.088009904E-008  3.936383779E-005
    14  6.496831738E-001  1.112674562E-008  3.925107292E-005
    15  6.504325305E-001  1.100317948E-008  3.928923558E-005
    16  6.497039983E-001  1.149467010E-008  3.924751572E-005
    17  6.502019126E-001  1.119827119E-008  3.928607504E-005
    18  6.494666502E-001  1.157267317E-008  3.924888324E-005
    19  6.504556240E-001  1.125537958E-008  3.934319069E-005
    20  6.494517635E-001  1.159556062E-008  3.924971598E-005
    - Max loops 

GPKDE histogram statistics 
   Max count         :   71.000000000171482     
   Max raw density   :   71.000000000171482     
   Min count         :   0.0000000000000000     
   Min raw density   :   0.0000000000000000     
   Mean raw density  :   34.620237194128201     


GPKDE data points statistics 
   Mean coordinates                 :   49.376650020543039        102.12312219709672       0.50000000000000000     
   Std. dev. coordinates            :   16.310274744049728        41.785720984691153        0.0000000000000000     
   Std. sigma scale                 :   26.106255756782069     
   Global smoothing scale Silverman :   3.6351212646963091     

 GPKDE compute density 
   initialSmoothing   :   3.6351212646963091        3.6351212646963091        0.0000000000000000     
 GPKDE Optimization -- Time: 5 -- Specie: 1
|-----------------------------------------------------------|
| Loop |  hHatOverLambda |     ALMISE      |      RMSE      |
|-----------------------------------------------------------|
     0  3.635121265E+000  0.000000000E+000  1.113404255E-004
     1  1.792935345E+000  3.139418803E-010  7.895543460E-005
     2  1.171499162E+000  1.073949894E-009  6.167365045E-005
     3  8.968835345E-001  2.264067359E-009  5.088860564E-005
     4  7.684477856E-001  4.069129091E-009  4.537316503E-005
     5  7.065197789E-001  6.158215064E-009  4.230838352E-005
     6  6.773646828E-001  8.072192318E-009  4.096755876E-005
     7  6.621236293E-001  9.868159637E-009  4.023686064E-005
     8  6.560891527E-001  1.079716602E-008  3.980398627E-005
     9  6.513946213E-001  1.190703918E-008  3.962056429E-005
    10  6.497286216E-001  1.268608871E-008  3.951695058E-005
    11  6.481455188E-001  1.295125987E-008  3.945710135E-005
    12  6.485134591E-001  1.314389945E-008  3.950084844E-005
    13  6.474647536E-001  1.291277127E-008  3.950226064E-005
    14  6.472437689E-001  1.320495603E-008  3.952510557E-005
    15  6.468109417E-001  1.303159768E-008  3.944785012E-005
    - ALMISE convergence    1.3146E-08

GPKDE histogram statistics 
   Max count         :   74.000000000178716     
   Max raw density   :   74.000000000178716     
   Min count         :   0.0000000000000000     
   Min raw density   :   0.0000000000000000     
   Mean raw density  :   33.044315992372255     


GPKDE data points statistics 
   Mean coordinates                 :   53.218107897068400        101.91391203868965       0.50000000000000000     
   Std. dev. coordinates            :   18.850651275903452        41.841987613263072        0.0000000000000000     
   Std. sigma scale                 :   28.084670501686396     
   Global smoothing scale Silverman :   3.9106022672802245     

 GPKDE compute density 
   initialSmoothing   :   3.9106022672802245        3.9106022672802245        0.0000000000000000     
 GPKDE Optimization -- Time: 6 -- Specie: 1
|-----------------------------------------------------------|
| Loop |  hHatOverLambda |     ALMISE      |      RMSE      |
|-----------------------------------------------------------|
     0  3.910602267E+000  0.000000000E+000  1.148159734E-004
     1  1.801654678E+000  2.737591827E-010  8.182764760E-005
     2  1.148694864E+000  1.032781145E-009  6.131412537E-005
     3  8.655026762E-001  2.333507344E-009  4.982514291E-005
     4  7.366969401E-001  4.637863243E-009  4.393158022E-005
     5  6.837630446E-001  7.392231071E-009  4.131685346E-005
     6  6.617462990E-001  1.075336756E-008  4.021261302E-005
     7  6.532258901E-001  1.399961482E-008  3.983188924E-005
     8  6.487056803E-001  1.642414263E-008  3.961337719E-005
     9  6.458303310E-001  1.750476587E-008  3.938643725E-005
    10  6.452743857E-001  1.964218923E-008  3.941669235E-005
    11  6.445713631E-001  2.034714109E-008  3.939076737E-005
    12  6.444335841E-001  1.988975917E-008  3.941071104E-005
    13  6.440780564E-001  2.028984639E-008  3.933420688E-005
    14  6.436977969E-001  1.999318945E-008  3.929531272E-005
    15  6.439130573E-001  2.039352732E-008  3.932999274E-005
    16  6.437677867E-001  2.002626041E-008  3.927769930E-005
    17  6.438184207E-001  2.039618816E-008  3.935326705E-005
    18  6.433721091E-001  1.994285336E-008  3.926095320E-005
    19  6.437908449E-001  2.037277768E-008  3.935301015E-005
    20  6.437246344E-001  2.004642001E-008  3.932959328E-005
    - Max loops 

GPKDE histogram statistics 
   Max count         :   77.000000000185963     
   Max raw density   :   77.000000000185963     
   Min count         :   0.0000000000000000     
   Min raw density   :   0.0000000000000000     
   Mean raw density  :   31.781329627132052     


GPKDE data points statistics 
   Mean coordinates                 :   57.102097356087455        101.45808357304504       0.50000000000000000     
   Std. dev. coordinates            :   21.375485039122800        42.029737414899920        0.0000000000000000     
   Std. sigma scale                 :   29.973421948627305     
   Global smoothing scale Silverman :   4.1735982561522471     

 GPKDE compute density 
   initialSmoothing   :   4.1735982561522471        4.1735982561522471        0.0000000000000000     
 GPKDE Optimization -- Time: 7 -- Specie: 1
|-----------------------------------------------------------|
| Loop |  hHatOverLambda |     ALMISE      |      RMSE      |
|-----------------------------------------------------------|
     0  4.173598256E+000  0.000000000E+000  1.215671312E-004
     1  1.763174357E+000  2.390522567E-010  8.229886711E-005
     2  1.122164579E+000  1.041545002E-009  6.116454998E-005
     3  8.360446180E-001  2.408538568E-009  4.870995289E-005
     4  7.170647390E-001  4.755222520E-009  4.297621698E-005
     5  6.734443647E-001  6.932067730E-009  4.093452058E-005
     6  6.577032037E-001  8.604135265E-009  4.023402057E-005
     7  6.505641478E-001  1.006479921E-008  3.986012283E-005
     8  6.472417074E-001  1.058006794E-008  3.969673009E-005
     9  6.469426080E-001  1.094626714E-008  3.964363405E-005
    10  6.454273046E-001  1.136743219E-008  3.966825946E-005
    - ALMISE convergence    1.1256E-08

GPKDE histogram statistics 
   Max count         :   76.000000000183547     
   Max raw density   :   76.000000000183547     
   Min count         :   0.0000000000000000     
   Min raw density   :   0.0000000000000000     
   Mean raw density  :   30.293663060350873     


GPKDE data points statistics 
   Mean coordinates                 :   61.019583658798531        101.04357632454575       0.50000000000000000     
   Std. dev. coordinates            :   23.729363231964467        42.258584100279741        0.0000000000000000     
   Std. sigma scale                 :   31.666532677008643     
   Global smoothing scale Silverman :   4.4093525852894517     

 GPKDE compute density 
   initialSmoothing   :   4.4093525852894517        4.4093525852894517        0.0000000000000000     
 GPKDE Optimization -- Time: 8 -- Specie: 1
|-----------------------------------------------------------|
| Loop |  hHatOverLambda |     ALMISE      |      RMSE      |
|-----------------------------------------------------------|
     0  4.409352585E+000  0.000000000E+000  1.267318265E-004
     1  1.748779870E+000  2.080633718E-010  8.236642777E-005
     2  1.108946752E+000  1.031182247E-009  6.072254617E-005
     3  8.137384671E-001  2.405777660E-009  4.763024932E-005
     4  7.035015456E-001  4.804271291E-009  4.231558416E-005
     5  6.663587495E-001  7.003416793E-009  4.059343104E-005
     6  6.533924268E-001  8.904090671E-009  3.991268553E-005
     7  6.466992076E-001  1.026336997E-008  3.965497026E-005
     8  6.444704333E-001  1.101448848E-008  3.952379692E-005
    - ALMISE convergence    1.1029E-08

GPKDE histogram statistics 
   Max count         :   73.000000000176314     
   Max raw density   :   73.000000000176314     
   Min count         :   0.0000000000000000     
   Min raw density   :   0.0000000000000000     
   Mean raw density  :   28.975712777260672     


GPKDE data points statistics 
   Mean coordinates                 :   64.954352540394368        100.79864039203990       0.50000000000000000     
   Std. dev. coordinates            :   25.787339835071265        42.502721512024443        0.0000000000000000     
   Std. sigma scale                 :   33.106375874534628     
   Global smoothing scale Silverman :   4.6098411070413814     

 GPKDE compute density 
   initialSmoothing   :   4.6098411070413814        4.6098411070413814        0.0000000000000000     
 GPKDE Optimization -- Time: 9 -- Specie: 1
|-----------------------------------------------------------|
| Loop |  hHatOverLambda |     ALMISE      |      RMSE      |
|-----------------------------------------------------------|
     0  4.609841107E+000  0.000000000E+000  1.249480572E-004
     1  1.755383637E+000  1.947792081E-010  8.119806986E-005
     2  1.108289967E+000  9.922158930E-010  5.969003247E-005
     3  8.131054115E-001  2.350952964E-009  4.673312418E-005
     4  7.024938984E-001  4.572826806E-009  4.138899386E-005
     5  6.631630965E-001  6.703984802E-009  3.946539781E-005
     6  6.492996059E-001  9.699637183E-009  3.869739708E-005
     7  6.438896127E-001  1.366991059E-008  3.842798490E-005
     8  6.395315732E-001  1.596708020E-008  3.824212928E-005
     9  6.396289961E-001  2.180253174E-008  3.827095624E-005
    10  6.390516725E-001  2.712730600E-008  3.822811147E-005
    11  6.388396156E-001  3.345468509E-008  3.820559343E-005
    12  6.366524805E-001  1.756037667E-008  3.820054290E-005
    13  6.382782563E-001  2.097372990E-008  3.816444052E-005
    14  6.376953166E-001  2.155169938E-008  3.816035688E-005
    15  6.390914872E-001  2.620541387E-008  3.820194170E-005
    16  6.373612270E-001  3.154146654E-008  3.820594458E-005
    17  6.374254353E-001  1.989727690E-008  3.819760293E-005
    18  6.374904609E-001  2.323095024E-008  3.818903251E-005
    19  6.385247593E-001  2.114412309E-008  3.817484292E-005
    20  6.374333631E-001  2.540358885E-008  3.818049185E-005
    - Max loops 

GPKDE histogram statistics 
   Max count         :   75.000000000181132     
   Max raw density   :   75.000000000181132     
   Min count         :   0.0000000000000000     
   Min raw density   :   0.0000000000000000     
   Mean raw density  :   28.034327748330348     


GPKDE data points statistics 
   Mean coordinates                 :   69.029217048961200        100.67692778040548       0.50000000000000000     
   Std. dev. coordinates            :   27.843673604642028        42.760871347425933        0.0000000000000000     
   Std. sigma scale                 :   34.505358204890683     
   Global smoothing scale Silverman :   4.8046400267099196     

 GPKDE compute density 
   initialSmoothing   :   4.8046400267099196        4.8046400267099196        0.0000000000000000     
 GPKDE Optimization -- Time: 10 -- Specie: 1
|-----------------------------------------------------------|
| Loop |  hHatOverLambda |     ALMISE      |      RMSE      |
|-----------------------------------------------------------|
     0  4.804640027E+000  0.000000000E+000  1.274031269E-004
     1  1.722222914E+000  1.799409002E-010  8.026506844E-005
     2  1.101318486E+000  9.790869278E-010  5.946895415E-005
     3  8.123240906E-001  2.358036533E-009  4.656266782E-005
     4  7.045138469E-001  4.846281561E-009  4.143470041E-005
     5  6.643399129E-001  7.529827409E-009  3.952475373E-005
     6  6.503991065E-001  1.091257269E-008  3.884724030E-005
     7  6.438309905E-001  1.473777956E-008  3.851174456E-005
     8  6.411881263E-001  1.805672080E-008  3.843859604E-005
     9  6.400119761E-001  1.939702946E-008  3.838819985E-005
    10  6.375478269E-001  2.078742478E-008  3.828195035E-005
    - ALMISE convergence    2.0587E-08

GPKDE histogram statistics 
   Max count         :   70.000000000169067     
   Max raw density   :   70.000000000169067     
   Min count         :   0.0000000000000000     
   Min raw density   :   0.0000000000000000     
   Mean raw density  :   26.765509169006748     


GPKDE data points statistics 
   Mean coordinates                 :   73.175722250800163        100.61893456493111       0.50000000000000000     
   Std. dev. coordinates            :   29.884115187024488        43.038548068481845        0.0000000000000000     
   Std. sigma scale                 :   35.863197402919916     
   Global smoothing scale Silverman :   4.9937100407624690     

 GPKDE compute density 
   initialSmoothing   :   4.9937100407624690        4.9937100407624690        0.0000000000000000     
 GPKDE Optimization -- Time: 11 -- Specie: 1
|-----------------------------------------------------------|
| Loop |  hHatOverLambda |     ALMISE      |      RMSE      |
|-----------------------------------------------------------|
     0  4.993710041E+000  0.000000000E+000  1.246100842E-004
     1  1.746338460E+000  1.671411818E-010  7.978602641E-005
     2  1.113050522E+000  9.052185896E-010  5.875626849E-005
     3  8.190634258E-001  2.212182775E-009  4.567580098E-005
     4  7.077793733E-001  4.945526552E-009  4.044076817E-005
     5  6.682085025E-001  7.975454248E-009  3.865776133E-005
     6  6.549787735E-001  1.225109411E-008  3.799109082E-005
     7  6.486501967E-001  1.580391916E-008  3.772985856E-005