
MODPATH-RW Version 0.0.1               
Program compiled Mar 30 2023 10:07:59 with GFORTRAN compiler (ver. 12.1.0)                

This program has been developed and published by the Hydrogeology
Group (GHS), Universitat Politècnica de Catalunya (UPC). It is free
to use and modify under the condition that neither the GHS nor UPC
shall be considered legally responsible for any wrongdoing or damages
derived from its use. The code is an extension of software originally
released by the U.S. Geological Survey (USGS), without endorsement
from this institution, explicit or implied. Their release conditions
also apply (see disclaimer below).

This software has been approved for release by the U.S. Geological
Survey (USGS). Although the software has been subjected to rigorous
review, the USGS reserves the right to update the software as needed
pursuant to further analysis and review. No warranty, expressed or
implied, is made by the USGS or the U.S. Government as to the
functionality of the software and related material nor shall the
fact of release constitute any such warranty. Furthermore, the
software is released on condition that neither the USGS nor the U.S.
Government shall be held liable for any damages resulting from its
authorized or unauthorized use. Also refer to the USGS Water
Resources Software User Rights Notice for complete use, copyright,
and distribution information.


MODPATH-RW name file data
-------------------------
   MPBAS File: mpathrw.mpbas
  GRBDIS File: mf6_model.dis.grb
    TDIS File: mf6_sim.tdis
    HEAD File: mf6_model_steady.hds
  BUDGET File: mf6_model_steady.bud
     DSP File: mpathrw.dsp
  RWOPTS File: mpathrw.rwopts
      IC File: mpathrw.ic.npx8
   GPKDE File: mpathrw.gpkde

Grid data
---------
Grid file type: MODFLOW-6 DIS binary grid file.
Time discretization file type: MODFLOW-6 time discretization file.
 # File generated by Flopy version 3.3.6 on 03/28/2023 at 09:17:49.

 Time discretization file data
 -----------------------------
 Stress period count =          1
 Period length:      100.00000 Time step count:         1 Time step multiplier:        1.00000

 The budget file was opened successfully.

 MODPATH basic data file data
 ----------------------------
 # # MPBAS package for MODPATH 7 generated by Flopy 3.3.6
 Aquifer head is set to  1.00000E+30 at cells with IDOMAIN = 0.
 Aquifer head is set to -1.00000E+30 at all dry cells when Newton-Raphson rewetting is not active.


                 POROSITY =  0.350000     FOR LAYER   1

 MODPATH-RW simulation file data
 -------------------------------
 # MPSIM package for MODPATH 7 generated by Flopy 3.3.6
RWPT with Timeseries Analysis (Simulation type = 5)
Forward tracking (Tracking direction =  1)
Stop particles when they enter weak sink cells. (Weak sink option = 2)
Let particles pass through weak source cells for backtracking simulations (Weak source option = 1)
No timeseries output, skip TimeseriesWriter (Timeseries output option = 2)
Particle groups with default mass and soluteid (ParticlesMassOption = 0)
Solutes with the same dispersion (SolutesOption= 0)
Reference time =   0.0000000E+00
Specify a limit for tracking time (Stoping time option =  3)
Stop time =   0.1501000E+03
The zone value for all cells = 1

The retardation factor for all cells = 1

Number of particle groups =     0

The simulation will be run with stoptime =   0.1501000E+03

 MODPATH-RW GPKDE file data
 --------------------------
GPKDE reconstruction is enabled
GPKDE reconstruction with kernel database
GPKDE output is requested to be expressed as resident concentration.
Porosity and retardation are spatially uniform, GPKDE output is given as concentration.

 MODPATH-RW OBS file data
 --------------------------
No observations were specified

 MODPATH-RW RWOPTS file data
 ---------------------------
RW time step will be selected with the MIN_ADV_DISP criteria.
RW advection integration is EULERIAN.
Random displacements for 2 dimensions.
Random displacements for X dimension.
Random displacements for Y dimension.

 MODPATH-RW IC file data
 -----------------------
Given number of initial conditions =     1
Processing initial condition:     1



                       IC           FOR LAYER   1
 READING ON UNIT  123 WITH FORMAT: (1000E15.6)         
Original particle mass for initial condition =   5.468750000E-003
Effective particle mass for initial condition =   4.320987654E-003
Retardation factor is unitary so total dissolved mass is the total mass.
Total accumulated mass for initial condition =   9.800000000E+002
Total number of particles for this initial condition =     226800
Total number of particles on initial conditions =     226800


 MODPATH-RW SRC file data
 ------------------------
SRC package was not specified in name file.

 Budget File Data
 ----------------
    Budget file type:  Unstructured grid
  Budget file format:  Compact
    Budget precision:  Double

 MODPATH-RW IMP file data
 ------------------------
IMP package was not specified in name file.

 MODPATH-RW SPC file data
 ------------------------
SPC package was not specified in name file.
ParticlesMassOption.ne.2. Will create a single solute and leave.

 MODPATH-RW DSP file data
 ------------------------
Given number of dispersion parameters/models =     1
Simulation is single dispersion, will read only first dispersion data.
Processing dispersion data:     1
Dispersion model is linear, isotropic: will read dmeff and dispersivities

           DMEFF          =   0.00000     FOR LAYER   1

          ALPHAL          =  2.000000E-02 FOR LAYER   1

         ALPHATH          =  2.000000E-03 FOR LAYER   1

 TransportModelData: verify SPC-DSP relations 
 ---------------------------------------------
Simulation is single dispersion. Is consistent.

------------------------------
 GPKDE module is initializing 
 GPKDE initializing Histogram 
   Histogram determines dimensions to be analyzed based on binSizes 
   Will compute Histogram considering            2  dimensions 
   binSize            :   1.0000000000000000        1.0000000000000000        0.0000000000000000     
   domainSize         :   1000.0000000000000        200.00000000000000        0.0000000000000000     
   domainOrigin       :   0.0000000000000000        0.0000000000000000        0.0000000000000000     
   Computed nBins     :        1000         200           1
   Dimensionality for reconstruction is determined from nBins 
   Will perform reconstruction in            2  dimensions.
 Initializing kernels database with parameters: 
  minHOverLambda         :  0.25000000000000000     
  maxHOverLambda         :   15.000000000000000     
  deltaHOverLambda       :   9.5217315400513772E-002
 Database is for kernels 2D 
 GPKDE module is initialized  
------------------------------



 Run particle tracking simulation ...

 ----------------------------------------------------------------------------------------------
 Processing Time Step     1 Period     1.  Time =  1.00000E+02  Steady-state flow                                                    
   (Cumulative step =      1)
 ----------------------------------------------------------------------------------------------

GPKDE histogram statistics 
   Max count         :   80.999999999748411     
   Max raw density   :   80.999999999748411     
   Min count         :   0.0000000000000000     
   Min raw density   :   0.0000000000000000     
   Mean raw density  :   80.999999999744873     


GPKDE data points statistics 
   Mean coordinates                 :   29.999999999999996        100.00000000000004       0.50000000000000000     
   Std. dev. coordinates            :   5.7734135939444036        40.414506115096295        0.0000000000000000     
   Std. sigma scale                 :   15.275132045172183     
   Global smoothing scale Silverman :   1.9560402994866122     

 GPKDE compute density 
   initialSmoothing   :   1.9560402994866122        1.9560402994866122        0.0000000000000000     
 GPKDE Optimization -- Time: 0 -- Specie: 1
|-----------------------------------------------------------|
| Loop |  hHatOverLambda |     ALMISE      |      RMSE      |
|-----------------------------------------------------------|
     0  1.956040299E+000  0.000000000E+000  5.569056433E-005
     1  1.302571203E+000  2.403510800E-008  4.315213836E-005
     2  1.045249169E+000  6.341449883E-008  3.189680027E-005
     3  8.409805102E-001  1.112306334E-007  2.632513012E-005
     4  7.510022941E-001  1.873985860E-007  1.928447797E-005
     5  7.762663695E-001  3.693346599E-007  1.896022280E-005
     6  7.309256940E-001  6.015714197E-007  3.243960723E-005
     7  6.339524274E-001  4.683696368E-007  2.120358662E-005
     8  6.892380154E-001  4.530371258E-007  1.989288359E-005
     9  7.427239352E-001  7.070209268E-007  1.907584550E-005
    10  7.445241762E-001  8.525990279E-007  2.612854706E-005
    11  6.182402656E-001  4.561348971E-007  2.502855586E-005
    12  6.700556773E-001  4.016475916E-007  2.084001589E-005
    13  7.050089495E-001  5.444931399E-007  1.920860031E-005
    14  7.551748092E-001  7.942208240E-007  2.147667346E-005
    15  7.166800377E-001  7.607688396E-007  2.039407336E-005
    16  6.957546594E-001  6.438228023E-007  1.998060103E-005
    17  7.346672080E-001  6.774779383E-007  1.921760711E-005
    18  7.460873605E-001  8.089933272E-007  2.900074033E-005
    19  6.369447075E-001  5.391749190E-007  2.148573426E-005
    20  6.851356423E-001  4.214581929E-007  1.955372792E-005
    - Max loops 

GPKDE histogram statistics 
   Max count         :   105.99999999967082     
   Max raw density   :   105.99999999967082     
   Min count         :   0.0000000000000000     
   Min raw density   :   0.0000000000000000     
   Mean raw density  :   70.303781772875496     


GPKDE data points statistics 
   Mean coordinates                 :   34.162809429242657        100.50393860421926       0.50000000000000000     
   Std. dev. coordinates            :   7.1517030973984204        41.025049276937331        0.0000000000000000     
   Std. sigma scale                 :   17.128892900149605     
   Global smoothing scale Silverman :   2.1934216148967547     

 GPKDE compute density 
   initialSmoothing   :   2.1934216148967547        2.1934216148967547        0.0000000000000000     
 GPKDE Optimization -- Time: 1 -- Specie: 1
|-----------------------------------------------------------|
| Loop |  hHatOverLambda |     ALMISE      |      RMSE      |
|-----------------------------------------------------------|
     0  2.193421615E+000  0.000000000E+000  6.599732406E-005
     1  1.313802583E+000  2.222551131E-008  5.146124443E-005
     2  1.012447880E+000  6.023338763E-008  4.276423815E-005
     3  8.278257768E-001  9.433596942E-008  3.701755812E-005
     4  7.452140028E-001  1.339329467E-007  3.316358680E-005
     5  6.941457224E-001  1.647425475E-007  3.084677514E-005
     6  6.706078680E-001  1.829969071E-007  2.974359020E-005
     7  6.569310338E-001  1.938033698E-007  2.918823383E-005
     8  6.509906821E-001  1.996319781E-007  2.897944988E-005
     9  6.472289643E-001  2.022288498E-007  2.885283866E-005
    - ALMISE convergence    2.0265E-07

GPKDE histogram statistics 
   Max count         :   107.99999999966461     
   Max raw density   :   107.99999999966461     
   Min count         :   0.0000000000000000     
   Min raw density   :   0.0000000000000000     
   Mean raw density  :   65.796344647315451     


GPKDE data points statistics 
   Mean coordinates                 :   38.103917395993051        101.07630029036008       0.50000000000000000     
   Std. dev. coordinates            :   9.3057281083978527        41.612507373540659        0.0000000000000000     
   Std. sigma scale                 :   19.678279384307718     
   Global smoothing scale Silverman :   2.5198805081641189     

 GPKDE compute density 
   initialSmoothing   :   2.5198805081641189        2.5198805081641189        0.0000000000000000     
 GPKDE Optimization -- Time: 2 -- Specie: 1
|-----------------------------------------------------------|
| Loop |  hHatOverLambda |     ALMISE      |      RMSE      |
|-----------------------------------------------------------|
     0  2.519880508E+000  0.000000000E+000  8.090032058E-005
     1  1.422899632E+000  1.743203653E-008  6.022123865E-005
     2  1.028250116E+000  5.122934539E-008  4.795970062E-005
     3  8.242717056E-001  8.745651319E-008  3.978458676E-005
     4  7.234865063E-001  1.342598264E-007  3.511262775E-005
     5  6.642117221E-001  1.802032595E-007  3.282326654E-005
     6  6.414775344E-001  2.105726480E-007  3.160224820E-005
     7  6.286244191E-001  2.229899716E-007  3.126120706E-005
     8  6.249150486E-001  2.292126160E-007  3.097299801E-005
     9  6.196694944E-001  2.367764560E-007  3.085188697E-005
    10  6.203309604E-001  2.406636752E-007  3.099784476E-005
    - ALMISE convergence    2.4084E-07

GPKDE histogram statistics 
   Max count         :   110.99999999965530     
   Max raw density   :   110.99999999965530     
   Min count         :   0.0000000000000000     
   Min raw density   :   0.0000000000000000     
   Mean raw density  :   62.154014798381979     


GPKDE data points statistics 
   Mean coordinates                 :   41.938662797230222        101.58314722058397       0.50000000000000000     
   Std. dev. coordinates            :   11.573077812081250        41.885964297771025        0.0000000000000000     
   Std. sigma scale                 :   22.017028047676217     
   Global smoothing scale Silverman :   2.8193664060529748     

 GPKDE compute density 
   initialSmoothing   :   2.8193664060529748        2.8193664060529748        0.0000000000000000     
 GPKDE Optimization -- Time: 3 -- Specie: 1
|-----------------------------------------------------------|
| Loop |  hHatOverLambda |     ALMISE      |      RMSE      |
|-----------------------------------------------------------|
     0  2.819366406E+000  0.000000000E+000  9.106093670E-005
     1  1.469407149E+000  1.506096260E-008  6.619209703E-005
     2  1.022115584E+000  4.726959986E-008  5.132181458E-005
     3  8.037081512E-001  8.709428650E-008  4.152695118E-005
     4  7.010759712E-001  1.475249728E-007  3.699563515E-005
     5  6.530598986E-001  2.061447135E-007  3.477111046E-005
     6  6.320542742E-001  2.428594308E-007  3.382450240E-005
     7  6.205249387E-001  2.627349527E-007  3.333054584E-005
     8  6.169309587E-001  2.742390376E-007  3.312134100E-005
     9  6.139343824E-001  2.817057851E-007  3.308890657E-005
    10  6.139685370E-001  2.846361139E-007  3.307404333E-005
    - ALMISE convergence    2.8564E-07

GPKDE histogram statistics 
   Max count         :   118.99999999963048     
   Max raw density   :   118.99999999963048     
   Min count         :   0.0000000000000000     
   Min raw density   :   0.0000000000000000     
   Mean raw density  :   58.665287118286756     


GPKDE data points statistics 
   Mean coordinates                 :   45.621476611620018        101.93012942469960       0.50000000000000000     
   Std. dev. coordinates            :   13.834114888943329        41.873763473698887        0.0000000000000000     
   Std. sigma scale                 :   24.068370421106394     
   Global smoothing scale Silverman :   3.0820488063496145     

 GPKDE compute density 
   initialSmoothing   :   3.0820488063496145        3.0820488063496145        0.0000000000000000     
 GPKDE Optimization -- Time: 4 -- Specie: 1
|-----------------------------------------------------------|
| Loop |  hHatOverLambda |     ALMISE      |      RMSE      |
|-----------------------------------------------------------|
     0  3.082048806E+000  0.000000000E+000  9.695331023E-005
     1  1.520634021E+000  1.296572132E-008  6.783446943E-005
     2  1.012595838E+000  4.388637129E-008  5.119533542E-005
     3  7.894889617E-001  8.595109708E-008  4.137556983E-005
     4  6.897150560E-001  1.566240396E-007  3.661645263E-005
     5  6.424317796E-001  2.412947529E-007  3.439936992E-005
     6  6.250024192E-001  3.280197890E-007  3.361645542E-005
     7  6.163978305E-001  4.099943466E-007  3.328617650E-005
     8  6.139403382E-001  4.381642146E-007  3.317340539E-005
     9  6.104409936E-001  4.675976246E-007  3.313492393E-005
    10  6.120095618E-001  4.740233416E-007  3.308075804E-005
    11  6.106050422E-001  4.797926586E-007  3.310297255E-005
    12  6.110281441E-001  4.887072122E-007  3.310858321E-005
    - ALMISE convergence    4.8457E-07

GPKDE histogram statistics 
   Max count         :   108.99999999966151     
   Max raw density   :   108.99999999966151     
   Min count         :   0.0000000000000000     
   Min raw density   :   0.0000000000000000     
   Mean raw density  :   56.138613861212008     


GPKDE data points statistics 
   Mean coordinates                 :   49.379380840563400        102.12469391402567       0.50000000000000000     
   Std. dev. coordinates            :   16.317055796505915        41.781499403768066        0.0000000000000000     
   Std. sigma scale                 :   26.110363019938312     
   Global smoothing scale Silverman :   3.3435339315031500     

 GPKDE compute density 
   initialSmoothing   :   3.3435339315031500        3.3435339315031500        0.0000000000000000     
 GPKDE Optimization -- Time: 5 -- Specie: 1
|-----------------------------------------------------------|
| Loop |  hHatOverLambda |     ALMISE      |      RMSE      |
|-----------------------------------------------------------|
     0  3.343533932E+000  0.000000000E+000  1.038655130E-004
     1  1.590581316E+000  1.090501278E-008  7.132095866E-005
     2  1.014733502E+000  3.937062496E-008  5.236831749E-005
     3  7.742123871E-001  8.576119281E-008  4.178290237E-005
     4  6.779757647E-001  1.587313607E-007  3.698820416E-005
     5  6.386177645E-001  2.384061601E-007  3.500484622E-005
     6  6.243248434E-001  3.223946996E-007  3.436794109E-005
     7  6.171169287E-001  3.894751238E-007  3.417187421E-005
     8  6.140165208E-001  4.474947122E-007  3.397666075E-005
     9  6.118695262E-001  4.835529827E-007  3.394726130E-005
    10  6.124479551E-001  5.021035998E-007  3.388516541E-005
    11  6.111018690E-001  5.110872022E-007  3.392307108E-005
    - ALMISE convergence    5.0943E-07

GPKDE histogram statistics 
   Max count         :   119.99999999962736     
   Max raw density   :   119.99999999962736     
   Min count         :   0.0000000000000000     
   Min raw density   :   0.0000000000000000     
   Mean raw density  :   53.139643861128739     


GPKDE data points statistics 
   Mean coordinates                 :   53.216309705855089        101.91560257395555       0.50000000000000000     
   Std. dev. coordinates            :   18.852528098538286        41.839085649906899        0.0000000000000000     
   Std. sigma scale                 :   28.085094584708447     
   Global smoothing scale Silverman :   3.5964060186272322     

 GPKDE compute density 
   initialSmoothing   :   3.5964060186272322        3.5964060186272322        0.0000000000000000     
 GPKDE Optimization -- Time: 6 -- Specie: 1
|-----------------------------------------------------------|
| Loop |  hHatOverLambda |     ALMISE      |      RMSE      |
|-----------------------------------------------------------|
     0  3.596406019E+000  0.000000000E+000  1.117704791E-004
     1  1.643812281E+000  9.009367629E-009  7.438923224E-005
     2  1.018251560E+000  3.532328085E-008  5.204564262E-005
     3  7.584047626E-001  8.479988710E-008  3.987636763E-005
     4  6.617129606E-001  1.740733870E-007  3.536901710E-005
     5  6.285317554E-001  2.761637054E-007  3.377269948E-005
     6  6.173667979E-001  3.802085339E-007  3.325564341E-005
     7  6.118657094E-001  4.893955531E-007  3.308064413E-005
     8  6.103380706E-001  6.039080455E-007  3.298289105E-005
     9  6.090043474E-001  6.947073239E-007  3.289305386E-005
    10  6.094583560E-001  7.082770472E-007  3.296275121E-005
    11  6.088869735E-001  6.924278012E-007  3.287498164E-005
    12  6.091439357E-001  7.355665192E-007  3.296437202E-005
    - ALMISE convergence    7.3329E-07

GPKDE histogram statistics 
   Max count         :   110.99999999965530     
   Max raw density   :   110.99999999965530     
   Min count         :   0.0000000000000000     
   Min raw density   :   0.0000000000000000     
   Mean raw density  :   50.749608413358075     


GPKDE data points statistics 
   Mean coordinates                 :   57.096129824427244        101.46135906691146       0.50000000000000000     
   Std. dev. coordinates            :   21.376088116170060        42.026777699381491        0.0000000000000000     
   Std. sigma scale                 :   29.972789382049005     
   Global smoothing scale Silverman :   3.8381327078506065     

 GPKDE compute density 
   initialSmoothing   :   3.8381327078506065        3.8381327078506065        0.0000000000000000     
 GPKDE Optimization -- Time: 7 -- Specie: 1
|-----------------------------------------------------------|
| Loop |  hHatOverLambda |     ALMISE      |      RMSE      |
|-----------------------------------------------------------|
     0  3.838132708E+000  0.000000000E+000  1.137170735E-004
     1  1.677979952E+000  7.866734415E-009  7.651639647E-005
     2  1.018146814E+000  3.291444566E-008  5.252937750E-005
     3  7.447517056E-001  8.559559369E-008  3.958682025E-005
     4  6.564793103E-001  1.783341363E-007  3.530481631E-005
     5  6.298189547E-001  2.663812709E-007  3.409478121E-005
     6  6.205695446E-001  3.455176101E-007  3.368978791E-005
     7  6.155021309E-001  4.162196310E-007  3.344750181E-005
     8  6.142000811E-001  4.609148308E-007  3.334636364E-005
     9  6.129581302E-001  4.715037698E-007  3.335314581E-005
    10  6.124708899E-001  4.832616442E-007  3.325328289E-005
    11  6.115679847E-001  4.736545605E-007  3.330252439E-005
    12  6.120090931E-001  4.833993526E-007  3.323963221E-005
    - Bandwidth convergence    9.9368E-03

GPKDE histogram statistics 
   Max count         :   114.99999999964288     
   Max raw density   :   114.99999999964288     
   Min count         :   0.0000000000000000     
   Min raw density   :   0.0000000000000000     
   Mean raw density  :   48.753224419453502     


GPKDE data points statistics 
   Mean coordinates                 :   61.010039068687227        101.04420423600540       0.50000000000000000     
   Std. dev. coordinates            :   23.733488259337491        42.259744394415137        0.0000000000000000     
   Std. sigma scale                 :   31.669719724485326     
   Global smoothing scale Silverman :   4.0554312637918066     

 GPKDE compute density 
   initialSmoothing   :   4.0554312637918066        4.0554312637918066        0.0000000000000000     
 GPKDE Optimization -- Time: 8 -- Specie: 1
|-----------------------------------------------------------|
| Loop |  hHatOverLambda |     ALMISE      |      RMSE      |
|-----------------------------------------------------------|
     0  4.055431264E+000  0.000000000E+000  1.189370954E-004
     1  1.655509026E+000  6.937140056E-009  7.633406357E-005
     2  9.977299943E-001  3.314177296E-008  5.213751768E-005
     3  7.292571813E-001  8.578469737E-008  3.902364134E-005
     4  6.486603845E-001  1.806562189E-007  3.519028659E-005
     5  6.243516214E-001  2.699518934E-007  3.406366490E-005
     6  6.158016776E-001  3.622194807E-007  3.370330264E-005
     7  6.111813320E-001  4.469719706E-007  3.343515512E-005
     8  6.095635494E-001  5.232421455E-007  3.337949566E-005
     9  6.091663713E-001  5.669789417E-007  3.339964769E-005
    10  6.084212275E-001  5.594216655E-007  3.338730857E-005
    11  6.085925261E-001  5.927945748E-007  3.338658735E-005
    - ALMISE convergence    5.9175E-07

GPKDE histogram statistics 
   Max count         :   112.99999999964909     
   Max raw density   :   112.99999999964909     
   Min count         :   0.0000000000000000     
   Min raw density   :   0.0000000000000000     
   Mean raw density  :   46.869187848583969     


GPKDE data points statistics 
   Mean coordinates                 :   64.949142928286335        100.79376858765671       0.50000000000000000     
   Std. dev. coordinates            :   25.795745348045156        42.504941310554806        0.0000000000000000     
   Std. sigma scale                 :   33.112635686104426     
   Global smoothing scale Silverman :   4.2402022864810327     

 GPKDE compute density 
   initialSmoothing   :   4.2402022864810327        4.2402022864810327        0.0000000000000000     
 GPKDE Optimization -- Time: 9 -- Specie: 1
|-----------------------------------------------------------|
| Loop |  hHatOverLambda |     ALMISE      |      RMSE      |
|-----------------------------------------------------------|
     0  4.240202286E+000  0.000000000E+000  1.180878890E-004
     1  1.648904771E+000  6.285115123E-009  7.605126174E-005
     2  9.902618916E-001  3.241757727E-008  5.187401254E-005
     3  7.243111676E-001  8.613673521E-008  3.904277164E-005
     4  6.432395463E-001  1.799210581E-007  3.506643720E-005
     5  6.181854183E-001  2.945247929E-007  3.388784270E-005
     6  6.100643364E-001  5.973155388E-007  3.348083134E-005
     7  6.068264845E-001  7.916766575E-007  3.335380202E-005
     8  6.045478890E-001  5.555912326E-007  3.325046504E-005
     9  6.033542366E-001  6.786286102E-007  3.320023519E-005
    10  6.034757093E-001  7.494416306E-007  3.318800188E-005
    11  6.038326953E-001  9.092684037E-007  3.316932105E-005
    12  6.035782982E-001  9.646910051E-007  3.314824921E-005
    13  6.029697852E-001  1.219663662E-006  3.317211295E-005
    14  6.030396140E-001  1.107295477E-006  3.319242800E-005
    15  6.026751388E-001  1.340404409E-006  3.314715513E-005
    16  6.031731032E-001  1.321218834E-006  3.312014602E-005
    17  6.032521533E-001  1.385541510E-006  3.315714013E-005
    18  6.034538774E-001  1.293904856E-006  3.317854378E-005
    19  6.026576592E-001  1.333675384E-006  3.311831506E-005
    20  6.032941550E-001  1.247316846E-006  3.313704580E-005
    - Max loops 

GPKDE histogram statistics 
   Max count         :   111.99999999965220     
   Max raw density   :   111.99999999965220     
   Min count         :   0.0000000000000000     
   Min raw density   :   0.0000000000000000     
   Mean raw density  :   44.866468842590912     


GPKDE data points statistics 
   Mean coordinates                 :   69.028045918052982        100.67406889675405       0.50000000000000000     
   Std. dev. coordinates            :   27.862380404615699        42.764313389009125        0.0000000000000000     
   Std. sigma scale                 :   34.518336683374137     
   Global smoothing scale Silverman :   4.4202077876810772     

 GPKDE compute density 
   initialSmoothing   :   4.4202077876810772        4.4202077876810772        0.0000000000000000     
 GPKDE Optimization -- Time: 10 -- Specie: 1
|-----------------------------------------------------------|
| Loop |  hHatOverLambda |     ALMISE      |      RMSE      |
|-----------------------------------------------------------|
     0  4.420207788E+000  0.000000000E+000  1.205832166E-004
     1  1.637764810E+000  5.752969878E-009  7.571585853E-005
     2  9.913283672E-001  3.119237602E-008  5.196438053E-005
     3  7.276878093E-001  8.495638240E-008  3.892280040E-005
     4  6.450936496E-001  1.799995705E-007  3.501975973E-005
     5  6.196063530E-001  2.759205476E-007  3.384218626E-005
     6  6.109711549E-001  3.814379296E-007  3.344737525E-005
     7  6.085952230E-001  4.861894879E-007  3.344002248E-005
     8  6.067642545E-001  5.811101564E-007  3.332723496E-005
     9  6.052257244E-001  6.423775842E-007  3.323425035E-005
    10  6.056036130E-001  6.623010283E-007  3.324736427E-005
    - ALMISE convergence    6.6590E-07

GPKDE histogram statistics 
   Max count         :   115.99999999963978     
   Max raw density   :   115.99999999963978     
   Min count         :   0.0000000000000000     
   Min raw density   :   0.0000000000000000     
   Mean raw density  :   42.849045909559365     


GPKDE data points statistics 
   Mean coordinates                 :   73.186419554315350        100.61833272247517       0.50000000000000000     
   Std. dev. coordinates            :   29.915535474574220        43.043598772723868        0.0000000000000000     
   Std. sigma scale                 :   35.884151181806715     
   Global smoothing scale Silverman :   4.5951056669698911     

 GPKDE compute density 
   initialSmoothing   :   4.5951056669698911        4.5951056669698911        0.0000000000000000     
 GPKDE Optimization -- Time: 11 -- Specie: 1
|-----------------------------------------------------------|
| Loop |  hHatOverLambda |     ALMISE      |      RMSE      |
|-----------------------------------------------------------|
     0  4.595105667E+000  0.000000000E+000  1.174749493E-004
     1  1.604229624E+000  5.590320669E-009  7.333701208E-005
     2  9.813761107E-001  3.093345209E-008  5.016109750E-005
     3  7.228423534E-001  8.342895994E-008  3.737932510E-005
     4  6.488789878E-001  1.920569674E-007  3.397719251E-005
     5  6.276117269E-001  3.228570332E-007  3.296278259E-005
     6  6.218931538E-001  5.165203976E-007  3.279566815E-005
     7  6.176223931E-001  6.963558726E-007  3.262464789E-005
     8  6.186298456E-001  8.369722573E-007  3.269658778E-005
     9  6.173680427E-001  8.896777336E-007  3.264033482E-005
    10  6.180118979E-001  9.520178756E-007  3.263659363E-005
    11  6.170750821E-001  1.000177371E-006  3.266517799E-005
    12  6.169480007E-001  9.795913404E-007  3.264928752E-005
    13  6.168772168E-001  1.018266076E-006  3.263231674E-005
    14  6.173389276E-001  9.970700440E-007  3.261313917E-005
    15  6.169371105E-001  1.044211082E-006  3.261510578E-005
    16  6.169786241E-001  9.970457493E-007  3.260123980E-005
    17  6.167836116E-001  1.025362501E-006  3.262353249E-005