
MODPATH-RW Version 0.0.1               
Program compiled Mar 28 2023 10:15:59 with GFORTRAN compiler (ver. 12.1.0)                

This program has been developed and published by the Hydrogeology
Group (GHS), Universitat Politècnica de Catalunya (UPC). It is free
to use and modify under the condition that neither the GHS nor UPC
shall be considered legally responsible for any wrongdoing or damages
derived from its use. The code is an extension of software originally
released by the U.S. Geological Survey (USGS), without endorsement
from this institution, explicit or implied. Their release conditions
also apply (see disclaimer below).

This software has been approved for release by the U.S. Geological
Survey (USGS). Although the software has been subjected to rigorous
review, the USGS reserves the right to update the software as needed
pursuant to further analysis and review. No warranty, expressed or
implied, is made by the USGS or the U.S. Government as to the
functionality of the software and related material nor shall the
fact of release constitute any such warranty. Furthermore, the
software is released on condition that neither the USGS nor the U.S.
Government shall be held liable for any damages resulting from its
authorized or unauthorized use. Also refer to the USGS Water
Resources Software User Rights Notice for complete use, copyright,
and distribution information.


MODPATH-RW name file data
-------------------------
   MPBAS File: mpathrw.mpbas
  GRBDIS File: mf6_model.dis.grb
    TDIS File: mf6_sim.tdis
    HEAD File: mf6_model_steady.hds
  BUDGET File: mf6_model_steady.bud
     DSP File: mpathrw.dsp
  RWOPTS File: mpathrw.rwopts
      IC File: mpathrw.ic.npx20
   GPKDE File: mpathrw.gpkde

Grid data
---------
Grid file type: MODFLOW-6 DIS binary grid file.
Time discretization file type: MODFLOW-6 time discretization file.
 # File generated by Flopy version 3.3.6 on 03/28/2023 at 09:17:49.

 Time discretization file data
 -----------------------------
 Stress period count =          1
 Period length:      100.00000 Time step count:         1 Time step multiplier:        1.00000

 The budget file was opened successfully.

 MODPATH basic data file data
 ----------------------------
 # # MPBAS package for MODPATH 7 generated by Flopy 3.3.6
 Aquifer head is set to  1.00000E+30 at cells with IDOMAIN = 0.
 Aquifer head is set to -1.00000E+30 at all dry cells when Newton-Raphson rewetting is not active.


                 POROSITY =  0.350000     FOR LAYER   1

 MODPATH-RW simulation file data
 -------------------------------
 # MPSIM package for MODPATH 7 generated by Flopy 3.3.6
RWPT with Timeseries Analysis (Simulation type = 5)
Forward tracking (Tracking direction =  1)
Stop particles when they enter weak sink cells. (Weak sink option = 2)
Let particles pass through weak source cells for backtracking simulations (Weak source option = 1)
No timeseries output, skip TimeseriesWriter (Timeseries output option = 2)
Particle groups with default mass and soluteid (ParticlesMassOption = 0)
Solutes with the same dispersion (SolutesOption= 0)
Reference time =   0.0000000E+00
Specify a limit for tracking time (Stoping time option =  3)
Stop time =   0.1501000E+03
The zone value for all cells = 1

The retardation factor for all cells = 1

Number of particle groups =     0

The simulation will be run with stoptime =   0.1501000E+03

 MODPATH-RW GPKDE file data
 --------------------------
GPKDE reconstruction is enabled
GPKDE reconstruction with kernel database
GPKDE output is requested to be expressed as resident concentration.
Porosity and retardation are spatially uniform, GPKDE output is given as concentration.

 MODPATH-RW OBS file data
 --------------------------
No observations were specified

 MODPATH-RW RWOPTS file data
 ---------------------------
RW time step will be selected with the MIN_ADV_DISP criteria.
RW advection integration is EULERIAN.
Random displacements for 2 dimensions.
Random displacements for X dimension.
Random displacements for Y dimension.

 MODPATH-RW IC file data
 -----------------------
Given number of initial conditions =     1
Processing initial condition:     1



                       IC           FOR LAYER   1
 READING ON UNIT  123 WITH FORMAT: (1000E15.6)         
Original particle mass for initial condition =   8.750000000E-004
Effective particle mass for initial condition =   7.936507937E-004
Retardation factor is unitary so total dissolved mass is the total mass.
Total accumulated mass for initial condition =   9.800000000E+002
Total number of particles for this initial condition =    1234800
Total number of particles on initial conditions =    1234800


 MODPATH-RW SRC file data
 ------------------------
SRC package was not specified in name file.

 Budget File Data
 ----------------
    Budget file type:  Unstructured grid
  Budget file format:  Compact
    Budget precision:  Double

 MODPATH-RW IMP file data
 ------------------------
IMP package was not specified in name file.

 MODPATH-RW SPC file data
 ------------------------
SPC package was not specified in name file.
ParticlesMassOption.ne.2. Will create a single solute and leave.

 MODPATH-RW DSP file data
 ------------------------
Given number of dispersion parameters/models =     1
Simulation is single dispersion, will read only first dispersion data.
Processing dispersion data:     1
Dispersion model is linear, isotropic: will read dmeff and dispersivities

           DMEFF          =   0.00000     FOR LAYER   1

          ALPHAL          =  2.000000E-02 FOR LAYER   1

         ALPHATH          =  2.000000E-03 FOR LAYER   1

 TransportModelData: verify SPC-DSP relations 
 ---------------------------------------------
Simulation is single dispersion. Is consistent.

------------------------------
 GPKDE module is initializing 
 GPKDE initializing Histogram 
   Histogram determines dimensions to be analyzed based on binSizes 
   Will compute Histogram considering            2  dimensions 
   binSize            :   1.0000000000000000        1.0000000000000000        0.0000000000000000     
   domainSize         :   1000.0000000000000        200.00000000000000        0.0000000000000000     
   domainOrigin       :   0.0000000000000000        0.0000000000000000        0.0000000000000000     
   Computed nBins     :        1000         200           1
   Dimensionality for reconstruction is determined from nBins 
   Will perform reconstruction in            2  dimensions.
 Initializing kernels database with parameters: 
  minHOverLambda         :  0.25000000000000000     
  maxHOverLambda         :   15.000000000000000     
  deltaHOverLambda       :   9.5217315400513772E-002
 Database is for kernels 2D 
 GPKDE module is initialized  
------------------------------



 Run particle tracking simulation ...

 ----------------------------------------------------------------------------------------------
 Processing Time Step     1 Period     1.  Time =  1.00000E+02  Steady-state flow                                                    
   (Cumulative step =      1)
 ----------------------------------------------------------------------------------------------

GPKDE histogram statistics 
   Max count         :   441.00000000026330     
   Max raw density   :   441.00000000026330     
   Min count         :   0.0000000000000000     
   Min raw density   :   0.0000000000000000     
   Mean raw density  :   441.00000000025136     


GPKDE data points statistics 
   Mean coordinates                 :   30.000000000000000        100.00000000000011       0.50000000000000000     
   Std. dev. coordinates            :   5.7734863270696071        40.414516505444382        0.0000000000000000     
   Std. sigma scale                 :   15.275230226065730     
   Global smoothing scale Silverman :   1.4747610575097492     

 GPKDE compute density 
   initialSmoothing   :   1.4747610575097492        1.4747610575097492        0.0000000000000000     
 GPKDE Optimization -- Time: 0 -- Specie: 1
|-----------------------------------------------------------|
| Loop |  hHatOverLambda |     ALMISE      |      RMSE      |
|-----------------------------------------------------------|
     0  1.474761058E+000  0.000000000E+000  4.730409947E-005
     1  8.823462011E-001  1.631976996E-006  3.210226350E-005
     2  6.833377120E-001  5.519296753E-006  2.202957961E-005
     3  6.090311065E-001  1.355644752E-005  1.991120429E-005
     4  6.169127915E-001  2.821095820E-005  1.960318530E-005
     5  6.065806118E-001  4.028681347E-005  1.886532818E-005
     6  6.556572715E-001  6.740982723E-005  1.983911175E-005
     7  5.946803708E-001  6.180146139E-005  1.915718120E-005
     8  6.234564742E-001  5.607967824E-005  1.897307870E-005
     9  6.616597553E-001  8.240313783E-005  2.047878176E-005
    10  5.788745209E-001  6.411746929E-005  1.950378788E-005
    11  6.129146492E-001  5.762753328E-005  1.896420564E-005
    12  6.549095034E-001  7.866748983E-005  1.898384157E-005
    13  6.558392499E-001  9.891884135E-005  2.412152512E-005
    14  5.668416934E-001  7.167554355E-005  2.098054062E-005
    15  5.828701678E-001  5.670014835E-005  1.908555802E-005
    16  6.219994564E-001  6.716503050E-005  1.891148371E-005
    17  6.514610041E-001  8.951027555E-005  2.071597665E-005
    18  5.890838809E-001  7.349543550E-005  1.902200130E-005
    19  6.389575813E-001  8.457228188E-005  1.911477839E-005
    20  6.388475716E-001  9.502491523E-005  1.962903759E-005
    - Max loops 

GPKDE histogram statistics 
   Max count         :   507.00000000030400     
   Max raw density   :   507.00000000030400     
   Min count         :   0.0000000000000000     
   Min raw density   :   0.0000000000000000     
   Mean raw density  :   373.84196185307138     


GPKDE data points statistics 
   Mean coordinates                 :   34.163569333319849        100.50513502964995       0.50000000000000000     
   Std. dev. coordinates            :   7.1515043046286255        41.025503525850255        0.0000000000000000     
   Std. sigma scale                 :   17.128749664370570     
   Global smoothing scale Silverman :   1.6537107850421608     

 GPKDE compute density 
   initialSmoothing   :   1.6537107850421608        1.6537107850421608        0.0000000000000000     
 GPKDE Optimization -- Time: 1 -- Specie: 1
|-----------------------------------------------------------|
| Loop |  hHatOverLambda |     ALMISE      |      RMSE      |
|-----------------------------------------------------------|
     0  1.653710785E+000  0.000000000E+000  5.336773122E-005
     1  9.107181158E-001  1.443932436E-006  3.613963198E-005
     2  6.639553131E-001  4.589945811E-006  2.590273928E-005
     3  5.600971776E-001  8.313677445E-006  2.141628272E-005
     4  5.452342572E-001  1.109794790E-005  2.090231775E-005
     5  5.373045662E-001  1.223292176E-005  2.065697869E-005
     6  5.372992193E-001  1.240693235E-005  2.068013037E-005
     7  5.359371227E-001  1.265493305E-005  2.065825520E-005
    - ALMISE convergence    1.2593E-05

GPKDE histogram statistics 
   Max count         :   513.00000000030764     
   Max raw density   :   513.00000000030764     
   Min count         :   0.0000000000000000     
   Min raw density   :   0.0000000000000000     
   Mean raw density  :   342.80955025005477     


GPKDE data points statistics 
   Mean coordinates                 :   38.102693608329162        101.07720138638643       0.50000000000000000     
   Std. dev. coordinates            :   9.3012381473464956        41.612618243721904        0.0000000000000000     
   Std. sigma scale                 :   19.673557690958514     
   Global smoothing scale Silverman :   1.8994016008863650     

 GPKDE compute density 
   initialSmoothing   :   1.8994016008863650        1.8994016008863650        0.0000000000000000     
 GPKDE Optimization -- Time: 2 -- Specie: 1
|-----------------------------------------------------------|
| Loop |  hHatOverLambda |     ALMISE      |      RMSE      |
|-----------------------------------------------------------|
     0  1.899401601E+000  0.000000000E+000  6.711469267E-005
     1  9.579750582E-001  1.197754433E-006  4.181311586E-005
     2  6.520921975E-001  4.221771918E-006  2.729668862E-005
     3  5.403055442E-001  8.662037012E-006  2.305636142E-005
     4  5.269736974E-001  1.263561875E-005  2.251258640E-005
     5  5.220054238E-001  1.479379000E-005  2.255646467E-005
     6  5.240511426E-001  1.602938530E-005  2.259795654E-005
     7  5.234900574E-001  1.670913371E-005  2.258236760E-005
    - ALMISE convergence    1.6817E-05

GPKDE histogram statistics 
   Max count         :   533.00000000032003     
   Max raw density   :   533.00000000032003     
   Min count         :   0.0000000000000000     
   Min raw density   :   0.0000000000000000     
   Mean raw density  :   325.03290339581423     


GPKDE data points statistics 
   Mean coordinates                 :   41.935276097539308        101.58399807891375       0.50000000000000000     
   Std. dev. coordinates            :   11.564893364048796        41.885929672205087        0.0000000000000000     
   Std. sigma scale                 :   22.009232383549843     
   Global smoothing scale Silverman :   2.1249014479372414     

 GPKDE compute density 
   initialSmoothing   :   2.1249014479372414        2.1249014479372414        0.0000000000000000     
 GPKDE Optimization -- Time: 3 -- Specie: 1
|-----------------------------------------------------------|
| Loop |  hHatOverLambda |     ALMISE      |      RMSE      |
|-----------------------------------------------------------|
     0  2.124901448E+000  0.000000000E+000  7.597039205E-005
     1  1.004426136E+000  1.003736364E-006  4.635512956E-005
     2  6.503757854E-001  3.896886512E-006  2.877372144E-005
     3  5.422765016E-001  9.725463668E-006  2.452813755E-005
     4  5.263340320E-001  1.529469030E-005  2.395208459E-005
     5  5.229244285E-001  1.899204720E-005  2.386947450E-005
     6  5.242111840E-001  2.124967235E-005  2.390747860E-005
    - Bandwidth convergence    8.4771E-03

GPKDE histogram statistics 
   Max count         :   546.00000000032799     
   Max raw density   :   546.00000000032799     
   Min count         :   0.0000000000000000     
   Min raw density   :   0.0000000000000000     
   Mean raw density  :   304.13793103465474     


GPKDE data points statistics 
   Mean coordinates                 :   45.618882852297894        101.93049370279400       0.50000000000000000     
   Std. dev. coordinates            :   13.823839487504822        41.874744597418989        0.0000000000000000     
   Std. sigma scale                 :   24.059712132421282     
   Global smoothing scale Silverman :   2.3228668885947479     

 GPKDE compute density 
   initialSmoothing   :   2.3228668885947479        2.3228668885947479        0.0000000000000000     
 GPKDE Optimization -- Time: 4 -- Specie: 1
|-----------------------------------------------------------|
| Loop |  hHatOverLambda |     ALMISE      |      RMSE      |
|-----------------------------------------------------------|
     0  2.322866889E+000  0.000000000E+000  8.102851749E-005
     1  1.032132005E+000  8.777362441E-007  4.827824744E-005
     2  6.466966035E-001  3.649487006E-006  2.948706640E-005
     3  5.452269068E-001  9.703987745E-006  2.518496071E-005
     4  5.285603997E-001  1.737323021E-005  2.475212031E-005
     5  5.250123860E-001  2.477145096E-005  2.465580446E-005
    - Bandwidth convergence    8.6991E-03

GPKDE histogram statistics 
   Max count         :   534.00000000032060     
   Max raw density   :   534.00000000032060     
   Min count         :   0.0000000000000000     
   Min raw density   :   0.0000000000000000     
   Mean raw density  :   287.16279069783667     


GPKDE data points statistics 
   Mean coordinates                 :   49.375536839761658        102.12390503153013       0.50000000000000000     
   Std. dev. coordinates            :   16.308321477177504        41.783354648160653        0.0000000000000000     
   Std. sigma scale                 :   26.103953340387406     
   Global smoothing scale Silverman :   2.5202300236210675     

 GPKDE compute density 
   initialSmoothing   :   2.5202300236210675        2.5202300236210675        0.0000000000000000     
 GPKDE Optimization -- Time: 5 -- Specie: 1
|-----------------------------------------------------------|
| Loop |  hHatOverLambda |     ALMISE      |      RMSE      |
|-----------------------------------------------------------|
     0  2.520230024E+000  0.000000000E+000  8.698026238E-005
     1  1.067398297E+000  7.546802281E-007  5.091891628E-005
     2  6.464381714E-001  3.320143873E-006  3.018520149E-005
     3  5.469155181E-001  9.573540738E-006  2.593077275E-005
     4  5.311651946E-001  1.776223861E-005  2.549728111E-005
     5  5.286245503E-001  2.701657613E-005  2.543653216E-005
    - Bandwidth convergence    8.9965E-03

GPKDE histogram statistics 
   Max count         :   544.00000000032674     
   Max raw density   :   544.00000000032674     
   Min count         :   0.0000000000000000     
   Min raw density   :   0.0000000000000000     
   Mean raw density  :   271.32498352025880     


GPKDE data points statistics 
   Mean coordinates                 :   53.213276607111887        101.91569141322080       0.50000000000000000     
   Std. dev. coordinates            :   18.843155420095076        41.839508519990929        0.0000000000000000     
   Std. sigma scale                 :   28.078254250266010     
   Global smoothing scale Silverman :   2.7108407086716029     

 GPKDE compute density 
   initialSmoothing   :   2.7108407086716029        2.7108407086716029        0.0000000000000000     
 GPKDE Optimization -- Time: 6 -- Specie: 1
|-----------------------------------------------------------|
| Loop |  hHatOverLambda |     ALMISE      |      RMSE      |
|-----------------------------------------------------------|
     0  2.710840709E+000  0.000000000E+000  9.460854166E-005
     1  1.112456028E+000  6.450677227E-007  5.277514101E-005
     2  6.435864907E-001  3.026598906E-006  2.951952619E-005
     3  5.462883789E-001  1.004992432E-005  2.553265984E-005
     4  5.321874862E-001  1.904647885E-005  2.516870389E-005
     5  5.296973139E-001  3.273686157E-005  2.506201317E-005
    - Bandwidth convergence    7.8268E-03

GPKDE histogram statistics 
   Max count         :   536.00000000032185     
   Max raw density   :   536.00000000032185     
   Min count         :   0.0000000000000000     
   Min raw density   :   0.0000000000000000     
   Mean raw density  :   257.46455379497473     


GPKDE data points statistics 
   Mean coordinates                 :   57.095619414807665        101.46044000140851       0.50000000000000000     
   Std. dev. coordinates            :   21.366409958720176        42.027175856704737        0.0000000000000000     
   Std. sigma scale                 :   29.966145377101480     
   Global smoothing scale Silverman :   2.8931088822749174     

 GPKDE compute density 
   initialSmoothing   :   2.8931088822749174        2.8931088822749174        0.0000000000000000     
 GPKDE Optimization -- Time: 7 -- Specie: 1
|-----------------------------------------------------------|
| Loop |  hHatOverLambda |     ALMISE      |      RMSE      |
|-----------------------------------------------------------|
     0  2.893108882E+000  0.000000000E+000  9.641882720E-005
     1  1.145790441E+000  5.714773918E-007  5.575696787E-005
     2  6.521818549E-001  2.746849117E-006  3.028913901E-005
     3  5.489992308E-001  9.916843988E-006  2.583194149E-005
     4  5.351099050E-001  1.838119140E-005  2.546841786E-005
     5  5.319877118E-001  2.666786718E-005  2.538022714E-005
    - Bandwidth convergence    8.1191E-03

GPKDE histogram statistics 
   Max count         :   539.00000000032367     
   Max raw density   :   539.00000000032367     
   Min count         :   0.0000000000000000     
   Min raw density   :   0.0000000000000000     
   Mean raw density  :   245.19459888814598     


GPKDE data points statistics 
   Mean coordinates                 :   61.009922783132019        101.04044406220308       0.50000000000000000     
   Std. dev. coordinates            :   23.719099898159801        42.257891956976223        0.0000000000000000     
   Std. sigma scale                 :   31.659424518035109     
   Global smoothing scale Silverman :   3.0565880639033081     

 GPKDE compute density 
   initialSmoothing   :   3.0565880639033081        3.0565880639033081        0.0000000000000000     
 GPKDE Optimization -- Time: 8 -- Specie: 1
|-----------------------------------------------------------|
| Loop |  hHatOverLambda |     ALMISE      |      RMSE      |
|-----------------------------------------------------------|
     0  3.056588064E+000  0.000000000E+000  1.003962757E-004
     1  1.208262996E+000  4.729996477E-007  5.788111587E-005
     2  6.603357857E-001  2.450676606E-006  3.055303827E-005
     3  5.510620512E-001  9.377624816E-006  2.575793686E-005
     4  5.347957371E-001  1.823664017E-005  2.533320594E-005
     5  5.320955504E-001  2.834219173E-005  2.528929359E-005
    - Bandwidth convergence    6.9801E-03

GPKDE histogram statistics 
   Max count         :   526.00000000031571     
   Max raw density   :   526.00000000031571     
   Min count         :   0.0000000000000000     
   Min raw density   :   0.0000000000000000     
   Mean raw density  :   234.21851289846387     


GPKDE data points statistics 
   Mean coordinates                 :   64.950405299910415        100.79269168661412       0.50000000000000000     
   Std. dev. coordinates            :   25.783045632301626        42.502188937949342        0.0000000000000000     
   Std. sigma scale                 :   33.103411861315038     
   Global smoothing scale Silverman :   3.1959991411761304     

 GPKDE compute density 
   initialSmoothing   :   3.1959991411761304        3.1959991411761304        0.0000000000000000     
 GPKDE Optimization -- Time: 9 -- Specie: 1
|-----------------------------------------------------------|
| Loop |  hHatOverLambda |     ALMISE      |      RMSE      |
|-----------------------------------------------------------|
     0  3.195999141E+000  0.000000000E+000  9.962737677E-005
     1  1.211756625E+000  4.455578455E-007  5.772931326E-005
     2  6.596170432E-001  2.379396233E-006  3.049101092E-005
     3  5.512674905E-001  9.258682890E-006  2.561579868E-005
     4  5.347192452E-001  1.918285169E-005  2.515871687E-005
     5  5.318283269E-001  4.150364770E-005  2.515084071E-005
    - Bandwidth convergence    9.7421E-03

GPKDE histogram statistics 
   Max count         :   533.00000000032003     
   Max raw density   :   533.00000000032003     
   Min count         :   0.0000000000000000     
   Min raw density   :   0.0000000000000000     
   Mean raw density  :   223.53367125284313     


GPKDE data points statistics 
   Mean coordinates                 :   69.026756541742415        100.67153287295027       0.50000000000000000     
   Std. dev. coordinates            :   27.841971180434427        42.763031154458524        0.0000000000000000     
   Std. sigma scale                 :   34.505174698738358     
   Global smoothing scale Silverman :   3.3313336149550388     

 GPKDE compute density 
   initialSmoothing   :   3.3313336149550388        3.3313336149550388        0.0000000000000000     
 GPKDE Optimization -- Time: 10 -- Specie: 1
|-----------------------------------------------------------|
| Loop |  hHatOverLambda |     ALMISE      |      RMSE      |
|-----------------------------------------------------------|
     0  3.331333615E+000  0.000000000E+000  1.022837801E-004
     1  1.246914621E+000  3.839202949E-007  5.899713830E-005
     2  6.721341448E-001  2.130300197E-006  3.148488929E-005
     3  5.555665041E-001  9.194424407E-006  2.610241590E-005
     4  5.378845067E-001  1.929483246E-005  2.562875351E-005
     5  5.341527365E-001  3.181864622E-005  2.558579479E-005
    - Bandwidth convergence    9.1740E-03

GPKDE histogram statistics 
   Max count         :   543.00000000032617     
   Max raw density   :   543.00000000032617     
   Min count         :   0.0000000000000000     
   Min raw density   :   0.0000000000000000     
   Mean raw density  :   213.52239322163319     


GPKDE data points statistics 
   Mean coordinates                 :   73.179935598498901        100.61665054363606       0.50000000000000000     
   Std. dev. coordinates            :   29.886106074797183        43.042580106021568        0.0000000000000000     
   Std. sigma scale                 :   35.866071917363847     
   Global smoothing scale Silverman :   3.4627226802325919     

 GPKDE compute density 
   initialSmoothing   :   3.4627226802325919        3.4627226802325919        0.0000000000000000     
 GPKDE Optimization -- Time: 11 -- Specie: 1
|-----------------------------------------------------------|
| Loop |  hHatOverLambda |     ALMISE      |      RMSE      |
|-----------------------------------------------------------|
     0  3.462722680E+000  0.000000000E+000  1.001170252E-004
     1  1.239043239E+000  3.638565680E-007  5.785367574E-005
     2  6.733490124E-001  2.056387121E-006  3.055036550E-005
     3  5.599222538E-001  9.637968967E-006  2.559280523E-005
     4  5.416414349E-001  2.315816698E-005  2.520388661E-005
     5  5.387932646E-001  4.207192874E-005  2.512133367E-005
     6  5.377719009E-001  6.331143498E-005  2.513974866E-005
     7  5.373961866E-001  8.548049697E-005  2.511395833E-005
     8  5.371099564E-001  8.990032626E-005  2.513205808E-005
     9  5.367206533E-001  9.954464690E-005  2.510828939E-005
    10  5.372868118E-001  1.110029376E-004  2.513386606E-005
    - Bandwidth convergence    9.3732E-03

GPKDE histogram statistics 
   Max count         :   536.00000000032185     
   Max raw density   :   536.00000000032185     
   Min count         :   0.0000000000000000     
   Min raw density   :   0.0000000000000000     
   Mean raw density  :   204.43708609283215     


GPKDE data points statistics 
   Mean coordinates                 :   77.321902254235113        100.66109565447930       0.50000000000000000     
   Std. dev. coordinates            :   31.873376996888318        43.283462467614633        0.0000000000000000     
   Std. sigma scale                 :   37.142833992049489     
   Global smoothing scale Silverman :   3.5859888411732443     

 GPKDE compute density 
   initialSmoothing   :   3.5859888411732443        3.5859888411732443        0.0000000000000000     
 GPKDE Optimization -- Time: 12 -- Specie: 1
|-----------------------------------------------------------|
| Loop |  hHatOverLambda |     ALMISE      |      RMSE      |
|-----------------------------------------------------------|
     0  3.585988841E+000  0.000000000E+000  9.660325285E-005
     1  1.240578077E+000  3.416485645E-007  5.529370989E-005
     2  6.762493424E-001  1.967644298E-006  2.892626561E-005
     3  5.603498114E-001  9.159978827E-006  2.425755957E-005
     4  5.422146968E-001  2.247526436E-005  2.384763597E-005
     5  5.395633965E-001  4.199032451E-005  2.380243625E-005
    - Bandwidth convergence    9.5102E-03

GPKDE histogram statistics 
   Max count         :   549.00000000032981     
   Max raw density   :   549.00000000032981     
   Min count         :   0.0000000000000000     
   Min raw density   :   0.0000000000000000     
   Mean raw density  :   194.91712707193398     


GPKDE data points statistics 
   Mean coordinates                 :   81.424419873692486        100.73638735627725       0.50000000000000000     
   Std. dev. coordinates            :   33.865930502391109        43.561520723191670        0.0000000000000000     
   Std. sigma scale                 :   38.409001983780826     
   Global smoothing scale Silverman :   3.7082321866963999     

 GPKDE compute density 
   initialSmoothing   :   3.7082321866963999        3.7082321866963999        0.0000000000000000     
 GPKDE Optimization -- Time: 13 -- Specie: 1
|-----------------------------------------------------------|
| Loop |  hHatOverLambda |     ALMISE      |      RMSE      |
|-----------------------------------------------------------|
     0  3.708232187E+000  0.000000000E+000  9.809318673E-005
     1  1.242467139E+000  3.017198134E-007  5.362837789E-005
     2  6.769489782E-001  1.867441618E-006  2.810025231E-005
     3  5.650216209E-001  9.185421098E-006  2.353100566E-005
     4  5.449865431E-001  2.005569628E-005  2.307504333E-005
     5  5.416133335E-001  3.597463232E-005  2.305044286E-005
     6  5.410114505E-001  5.905853665E-005  2.300740431E-005
     7  5.409101757E-001  8.462252153E-005  2.300736783E-005
    - Bandwidth convergence    8.8333E-03

GPKDE histogram statistics 
   Max count         :   544.00000000032674     
   Max raw density   :   544.00000000032674     
   Min count         :   0.0000000000000000     
   Min raw density   :   0.0000000000000000     
   Mean raw density  :   187.88800973839068     


GPKDE data points statistics 
   Mean coordinates                 :   85.493325137097600        100.84676376774506       0.50000000000000000     
   Std. dev. coordinates            :   35.919595019419297        43.861054748371380        0.0000000000000000     
   Std. sigma scale                 :   39.692207342072550     
   Global smoothing scale Silverman :   3.8321204203393364     

 GPKDE compute density 
   initialSmoothing   :   3.8321204203393364        3.8321204203393364        0.0000000000000000     
 GPKDE Optimization -- Time: 14 -- Specie: 1
|-----------------------------------------------------------|
| Loop |  hHatOverLambda |     ALMISE      |      RMSE      |
|-----------------------------------------------------------|
     0  3.832120420E+000  0.000000000E+000  9.551596948E-005
     1  1.236021805E+000  2.898024384E-007  5.208429679E-005