
MODPATH-RW Version 0.0.1               
Program compiled Mar 30 2023 10:07:59 with GFORTRAN compiler (ver. 12.1.0)                

This program has been developed and published by the Hydrogeology
Group (GHS), Universitat Politècnica de Catalunya (UPC). It is free
to use and modify under the condition that neither the GHS nor UPC
shall be considered legally responsible for any wrongdoing or damages
derived from its use. The code is an extension of software originally
released by the U.S. Geological Survey (USGS), without endorsement
from this institution, explicit or implied. Their release conditions
also apply (see disclaimer below).

This software has been approved for release by the U.S. Geological
Survey (USGS). Although the software has been subjected to rigorous
review, the USGS reserves the right to update the software as needed
pursuant to further analysis and review. No warranty, expressed or
implied, is made by the USGS or the U.S. Government as to the
functionality of the software and related material nor shall the
fact of release constitute any such warranty. Furthermore, the
software is released on condition that neither the USGS nor the U.S.
Government shall be held liable for any damages resulting from its
authorized or unauthorized use. Also refer to the USGS Water
Resources Software User Rights Notice for complete use, copyright,
and distribution information.


MODPATH-RW name file data
-------------------------
   MPBAS File: mpathrw.mpbas
  GRBDIS File: mf6_model.dis.grb
    TDIS File: mf6_sim.tdis
    HEAD File: mf6_model_steady.hds
  BUDGET File: mf6_model_steady.bud
     DSP File: mpathrw.dsp
  RWOPTS File: mpathrw.rwopts
      IC File: mpathrw.ic.npx15
   GPKDE File: mpathrw.gpkde

Grid data
---------
Grid file type: MODFLOW-6 DIS binary grid file.
Time discretization file type: MODFLOW-6 time discretization file.
 # File generated by Flopy version 3.3.6 on 03/28/2023 at 09:17:49.

 Time discretization file data
 -----------------------------
 Stress period count =          1
 Period length:      100.00000 Time step count:         1 Time step multiplier:        1.00000

 The budget file was opened successfully.

 MODPATH basic data file data
 ----------------------------
 # # MPBAS package for MODPATH 7 generated by Flopy 3.3.6
 Aquifer head is set to  1.00000E+30 at cells with IDOMAIN = 0.
 Aquifer head is set to -1.00000E+30 at all dry cells when Newton-Raphson rewetting is not active.


                 POROSITY =  0.350000     FOR LAYER   1

 MODPATH-RW simulation file data
 -------------------------------
 # MPSIM package for MODPATH 7 generated by Flopy 3.3.6
RWPT with Timeseries Analysis (Simulation type = 5)
Forward tracking (Tracking direction =  1)
Stop particles when they enter weak sink cells. (Weak sink option = 2)
Let particles pass through weak source cells for backtracking simulations (Weak source option = 1)
No timeseries output, skip TimeseriesWriter (Timeseries output option = 2)
Particle groups with default mass and soluteid (ParticlesMassOption = 0)
Solutes with the same dispersion (SolutesOption= 0)
Reference time =   0.0000000E+00
Specify a limit for tracking time (Stoping time option =  3)
Stop time =   0.1501000E+03
The zone value for all cells = 1

The retardation factor for all cells = 1

Number of particle groups =     0

The simulation will be run with stoptime =   0.1501000E+03

 MODPATH-RW GPKDE file data
 --------------------------
GPKDE reconstruction is enabled
GPKDE reconstruction with kernel database
GPKDE output is requested to be expressed as resident concentration.
Porosity and retardation are spatially uniform, GPKDE output is given as concentration.

 MODPATH-RW OBS file data
 --------------------------
No observations were specified

 MODPATH-RW RWOPTS file data
 ---------------------------
RW time step will be selected with the MIN_ADV_DISP criteria.
RW advection integration is EULERIAN.
Random displacements for 2 dimensions.
Random displacements for X dimension.
Random displacements for Y dimension.

 MODPATH-RW IC file data
 -----------------------
Given number of initial conditions =     1
Processing initial condition:     1



                       IC           FOR LAYER   1
 READING ON UNIT  123 WITH FORMAT: (1000E15.6)         
Original particle mass for initial condition =   1.555500000E-003
Effective particle mass for initial condition =   1.367187500E-003
Retardation factor is unitary so total dissolved mass is the total mass.
Total accumulated mass for initial condition =   9.800000000E+002
Total number of particles for this initial condition =     716800
Total number of particles on initial conditions =     716800


 MODPATH-RW SRC file data
 ------------------------
SRC package was not specified in name file.

 Budget File Data
 ----------------
    Budget file type:  Unstructured grid
  Budget file format:  Compact
    Budget precision:  Double

 MODPATH-RW IMP file data
 ------------------------
IMP package was not specified in name file.

 MODPATH-RW SPC file data
 ------------------------
SPC package was not specified in name file.
ParticlesMassOption.ne.2. Will create a single solute and leave.

 MODPATH-RW DSP file data
 ------------------------
Given number of dispersion parameters/models =     1
Simulation is single dispersion, will read only first dispersion data.
Processing dispersion data:     1
Dispersion model is linear, isotropic: will read dmeff and dispersivities

           DMEFF          =   0.00000     FOR LAYER   1

          ALPHAL          =  2.000000E-02 FOR LAYER   1

         ALPHATH          =  2.000000E-03 FOR LAYER   1

 TransportModelData: verify SPC-DSP relations 
 ---------------------------------------------
Simulation is single dispersion. Is consistent.

------------------------------
 GPKDE module is initializing 
 GPKDE initializing Histogram 
   Histogram determines dimensions to be analyzed based on binSizes 
   Will compute Histogram considering            2  dimensions 
   binSize            :   1.0000000000000000        1.0000000000000000        0.0000000000000000     
   domainSize         :   1000.0000000000000        200.00000000000000        0.0000000000000000     
   domainOrigin       :   0.0000000000000000        0.0000000000000000        0.0000000000000000     
   Computed nBins     :        1000         200           1
   Dimensionality for reconstruction is determined from nBins 
   Will perform reconstruction in            2  dimensions.
 Initializing kernels database with parameters: 
  minHOverLambda         :  0.25000000000000000     
  maxHOverLambda         :   15.000000000000000     
  deltaHOverLambda       :   9.5217315400513772E-002
 Database is for kernels 2D 
 GPKDE module is initialized  
------------------------------



 Run particle tracking simulation ...

 ----------------------------------------------------------------------------------------------
 Processing Time Step     1 Period     1.  Time =  1.00000E+02  Steady-state flow                                                    
   (Cumulative step =      1)
 ----------------------------------------------------------------------------------------------

GPKDE histogram statistics 
   Max count         :   256.00000000093814     
   Max raw density   :   256.00000000093814     
   Min count         :   0.0000000000000000     
   Min raw density   :   0.0000000000000000     
   Mean raw density  :   256.00000000093200     


GPKDE data points statistics 
   Mean coordinates                 :   30.000000000000000        100.00000000000000       0.50000000000000000     
   Std. dev. coordinates            :   5.7734745008963193        40.414514815997727        0.0000000000000000     
   Std. sigma scale                 :   15.275214262204619     
   Global smoothing scale Silverman :   1.6146843820493710     

 GPKDE compute density 
   initialSmoothing   :   1.6146843820493710        1.6146843820493710        0.0000000000000000     
 GPKDE Optimization -- Time: 0 -- Specie: 1
|-----------------------------------------------------------|
| Loop |  hHatOverLambda |     ALMISE      |      RMSE      |
|-----------------------------------------------------------|
     0  1.614684382E+000  0.000000000E+000  4.999966431E-005
     1  1.004548071E+000  8.096219814E-009  3.538964891E-005
     2  7.558288014E-001  2.605627162E-008  2.457392197E-005
     3  6.604341403E-001  6.079887802E-008  2.147513384E-005
     4  6.508799940E-001  1.301825264E-007  1.902872317E-005
     5  6.654588603E-001  1.866038064E-007  1.892988251E-005
     6  6.978669567E-001  3.523901354E-007  1.913460925E-005
     7  6.443106245E-001  3.150990506E-007  2.354955708E-005
     8  6.023354009E-001  2.313834785E-007  1.925209806E-005
     9  6.465691050E-001  2.653463591E-007  1.923809855E-005
    10  6.669291074E-001  2.960220318E-007  1.901236765E-005
    11  6.912018396E-001  3.594899301E-007  1.951862707E-005
    12  6.507099516E-001  3.297769830E-007  2.080874592E-005
    13  6.242211735E-001  2.412724856E-007  1.910049847E-005
    14  6.728934784E-001  2.946889210E-007  1.942084291E-005
    15  6.737773059E-001  3.707562808E-007  1.893682523E-005
    16  6.792539554E-001  3.745562218E-007  2.055966820E-005
    17  6.050791739E-001  2.245037963E-007  1.940045170E-005
    18  6.608978739E-001  2.312815685E-007  1.897454574E-005
    19  7.053170049E-001  3.534727479E-007  1.940978746E-005
    20  6.340572581E-001  2.845359674E-007  2.476806325E-005
    - Max loops 

GPKDE histogram statistics 
   Max count         :   307.00000000112487     
   Max raw density   :   307.00000000112487     
   Min count         :   0.0000000000000000     
   Min raw density   :   0.0000000000000000     
   Mean raw density  :   218.33688699440191     


GPKDE data points statistics 
   Mean coordinates                 :   34.163364489382914        100.50500453855982       0.50000000000000000     
   Std. dev. coordinates            :   7.1516134328938579        41.025769054931885        0.0000000000000000     
   Std. sigma scale                 :   17.128935783289400     
   Global smoothing scale Silverman :   1.8106341826469572     

 GPKDE compute density 
   initialSmoothing   :   1.8106341826469572        1.8106341826469572        0.0000000000000000     
 GPKDE Optimization -- Time: 1 -- Specie: 1
|-----------------------------------------------------------|
| Loop |  hHatOverLambda |     ALMISE      |      RMSE      |
|-----------------------------------------------------------|
     0  1.810634183E+000  0.000000000E+000  5.713128954E-005
     1  1.035317402E+000  7.161370932E-009  4.107976002E-005
     2  7.604451707E-001  2.192835507E-008  3.038401160E-005
     3  6.197591461E-001  3.806752575E-008  2.480808270E-005
     4  5.851682540E-001  5.243903629E-008  2.290755524E-005
     5  5.666561221E-001  6.042163421E-008  2.244218042E-005
     6  5.657333332E-001  6.324437010E-008  2.230123629E-005
     7  5.620920924E-001  6.448121023E-008  2.224336535E-005
    - ALMISE convergence    6.4798E-08

GPKDE histogram statistics 
   Max count         :   318.00000000116518     
   Max raw density   :   318.00000000116518     
   Min count         :   0.0000000000000000     
   Min raw density   :   0.0000000000000000     
   Mean raw density  :   201.91549295848577     


GPKDE data points statistics 
   Mean coordinates                 :   38.101192092616024        101.07736311839297       0.50000000000000000     
   Std. dev. coordinates            :   9.3003780281257402        41.613423072454260        0.0000000000000000     
   Std. sigma scale                 :   19.672838270522998     
   Global smoothing scale Silverman :   2.0795403691713616     

 GPKDE compute density 
   initialSmoothing   :   2.0795403691713616        2.0795403691713616        0.0000000000000000     
 GPKDE Optimization -- Time: 2 -- Specie: 1
|-----------------------------------------------------------|
| Loop |  hHatOverLambda |     ALMISE      |      RMSE      |
|-----------------------------------------------------------|
     0  2.079540369E+000  0.000000000E+000  7.149117587E-005
     1  1.076341771E+000  6.114273314E-009  4.720965364E-005
     2  7.501596128E-001  2.019305445E-008  3.295998313E-005
     3  5.991642036E-001  3.806006748E-008  2.609281335E-005
     4  5.601203997E-001  5.854708389E-008  2.461324571E-005
     5  5.455039619E-001  7.004385686E-008  2.413429135E-005
     6  5.444461123E-001  7.521367519E-008  2.414881654E-005
     7  5.433726362E-001  7.787784161E-008  2.417449721E-005
     8  5.441031114E-001  7.920484470E-008  2.418445939E-005
     9  5.442002659E-001  8.073072128E-008  2.415942567E-005
    10  5.440951412E-001  8.201799272E-008  2.422190876E-005
    - ALMISE convergence    8.1983E-08

GPKDE histogram statistics 
   Max count         :   320.00000000117251     
   Max raw density   :   320.00000000117251     
   Min count         :   0.0000000000000000     
   Min raw density   :   0.0000000000000000     
   Mean raw density  :   190.68901303607973     


GPKDE data points statistics 
   Mean coordinates                 :   41.935445505135093        101.58337953477768       0.50000000000000000     
   Std. dev. coordinates            :   11.564557237850769        41.886159773393793        0.0000000000000000     
   Std. sigma scale                 :   22.008972992240572     
   Global smoothing scale Silverman :   2.3264842211377434     

 GPKDE compute density 
   initialSmoothing   :   2.3264842211377434        2.3264842211377434        0.0000000000000000     
 GPKDE Optimization -- Time: 3 -- Specie: 1
|-----------------------------------------------------------|
| Loop |  hHatOverLambda |     ALMISE      |      RMSE      |
|-----------------------------------------------------------|
     0  2.326484221E+000  0.000000000E+000  8.038343804E-005
     1  1.133058963E+000  5.065924468E-009  5.163166329E-005
     2  7.507283014E-001  1.829990891E-008  3.465871372E-005
     3  5.978937945E-001  4.009189580E-008  2.732459785E-005
     4  5.587875686E-001  6.960604004E-008  2.568508402E-005
     5  5.467906676E-001  8.825942884E-008  2.541692820E-005
     6  5.459452183E-001  1.005715681E-007  2.540949314E-005
     7  5.449119958E-001  1.061376195E-007  2.539817311E-005
     8  5.456595475E-001  1.093320033E-007  2.537651135E-005
     9  5.447555669E-001  1.117185306E-007  2.537215498E-005
    10  5.454029534E-001  1.142438153E-007  2.535320437E-005
    - Bandwidth convergence    9.8333E-03

GPKDE histogram statistics 
   Max count         :   317.00000000116154     
   Max raw density   :   317.00000000116154     
   Min count         :   0.0000000000000000     
   Min raw density   :   0.0000000000000000     
   Mean raw density  :   178.79770516403664     


GPKDE data points statistics 
   Mean coordinates                 :   45.618264796377915        101.92916478954436       0.50000000000000000     
   Std. dev. coordinates            :   13.824168896120653        41.875176442864209        0.0000000000000000     
   Std. sigma scale                 :   24.060122852990748     
   Global smoothing scale Silverman :   2.5433034151958469     

 GPKDE compute density 
   initialSmoothing   :   2.5433034151958469        2.5433034151958469        0.0000000000000000     
 GPKDE Optimization -- Time: 4 -- Specie: 1
|-----------------------------------------------------------|
| Loop |  hHatOverLambda |     ALMISE      |      RMSE      |
|-----------------------------------------------------------|
     0  2.543303415E+000  0.000000000E+000  8.580652718E-005
     1  1.167067267E+000  4.401514264E-009  5.389695078E-005
     2  7.373483999E-001  1.734128794E-008  3.481290067E-005
     3  5.933228677E-001  4.198208972E-008  2.776665380E-005
     4  5.585693289E-001  7.674530480E-008  2.638069512E-005
     5  5.480873938E-001  1.084322764E-007  2.610354681E-005
     6  5.471094908E-001  1.351860471E-007  2.607942309E-005
     7  5.468632955E-001  1.499824096E-007  2.611610768E-005
     8  5.466024043E-001  1.585828488E-007  2.612656465E-005
     9  5.468389559E-001  1.618914127E-007  2.609017726E-005
    10  5.473302262E-001  1.645062937E-007  2.612785383E-005
    - ALMISE convergence    1.6504E-07

GPKDE histogram statistics 
   Max count         :   320.00000000117251     
   Max raw density   :   320.00000000117251     
   Min count         :   0.0000000000000000     
   Min raw density   :   0.0000000000000000     
   Mean raw density  :   169.41621366169295     


GPKDE data points statistics 
   Mean coordinates                 :   49.372889764292829        102.12354124448093       0.50000000000000000     
   Std. dev. coordinates            :   16.305909974011374        41.782907984029492        0.0000000000000000     
   Std. sigma scale                 :   26.101883764203418     
   Global smoothing scale Silverman :   2.7591301393663379     

 GPKDE compute density 
   initialSmoothing   :   2.7591301393663379        2.7591301393663379        0.0000000000000000     
 GPKDE Optimization -- Time: 5 -- Specie: 1
|-----------------------------------------------------------|
| Loop |  hHatOverLambda |     ALMISE      |      RMSE      |
|-----------------------------------------------------------|
     0  2.759130139E+000  0.000000000E+000  9.192281974E-005
     1  1.207035970E+000  3.799441142E-009  5.627796639E-005
     2  7.397964001E-001  1.571655080E-008  3.587069228E-005
     3  5.924039621E-001  4.008144034E-008  2.843693912E-005
     4  5.589510174E-001  7.496653953E-008  2.710748783E-005
     5  5.506128191E-001  1.076773003E-007  2.692176810E-005
     6  5.497258595E-001  1.433996096E-007  2.690215777E-005
    - Bandwidth convergence    9.5134E-03

GPKDE histogram statistics 
   Max count         :   318.00000000116518     
   Max raw density   :   318.00000000116518     
   Min count         :   0.0000000000000000     
   Min raw density   :   0.0000000000000000     
   Mean raw density  :   160.35794183503853     


GPKDE data points statistics 
   Mean coordinates                 :   53.208420044014254        101.91466219930639       0.50000000000000000     
   Std. dev. coordinates            :   18.839175993598342        41.839539709156206        0.0000000000000000     
   Std. sigma scale                 :   28.075299679111890     
   Global smoothing scale Silverman :   2.9677323757994190     

 GPKDE compute density 
   initialSmoothing   :   2.9677323757994190        2.9677323757994190        0.0000000000000000     
 GPKDE Optimization -- Time: 6 -- Specie: 1
|-----------------------------------------------------------|
| Loop |  hHatOverLambda |     ALMISE      |      RMSE      |
|-----------------------------------------------------------|
     0  2.967732376E+000  0.000000000E+000  9.520546196E-005
     1  1.248371451E+000  3.311961225E-009  5.876321036E-005
     2  7.335419765E-001  1.461345873E-008  3.528186296E-005
     3  5.872948000E-001  4.234954431E-008  2.784383374E-005
     4  5.565879965E-001  8.352717391E-008  2.679891392E-005
     5  5.500773742E-001  1.467657823E-007  2.660334378E-005
     6  5.486846760E-001  2.052994930E-007  2.660528884E-005
    - Bandwidth convergence    9.0776E-03

GPKDE histogram statistics 
   Max count         :   317.00000000116154     
   Max raw density   :   317.00000000116154     
   Min count         :   0.0000000000000000     
   Min raw density   :   0.0000000000000000     
   Mean raw density  :   152.38095238151010     


GPKDE data points statistics 
   Mean coordinates                 :   57.091416764092948        101.46081180799827       0.50000000000000000     
   Std. dev. coordinates            :   21.360100281864739        42.026727836560610        0.0000000000000000     
   Std. sigma scale                 :   29.961560725495776     
   Global smoothing scale Silverman :   3.1671218049611536     

 GPKDE compute density 
   initialSmoothing   :   3.1671218049611536        3.1671218049611536        0.0000000000000000     
 GPKDE Optimization -- Time: 7 -- Specie: 1
|-----------------------------------------------------------|
| Loop |  hHatOverLambda |     ALMISE      |      RMSE      |
|-----------------------------------------------------------|
     0  3.167121805E+000  0.000000000E+000  1.016492439E-004
     1  1.320907938E+000  2.733994360E-009  6.255219468E-005
     2  7.541064325E-001  1.250244764E-008  3.675148996E-005
     3  5.920093711E-001  3.952174303E-008  2.843980322E-005
     4  5.604398669E-001  7.659339206E-008  2.722322881E-005
     5  5.543808014E-001  1.107681368E-007  2.700663303E-005
     6  5.519342379E-001  1.372554188E-007  2.699535736E-005
    - Bandwidth convergence    9.3277E-03

GPKDE histogram statistics 
   Max count         :   310.00000000113590     
   Max raw density   :   310.00000000113590     
   Min count         :   0.0000000000000000     
   Min raw density   :   0.0000000000000000     
   Mean raw density  :   144.92519207493368     


GPKDE data points statistics 
   Mean coordinates                 :   61.007914887744263        101.04195704552326       0.50000000000000000     
   Std. dev. coordinates            :   23.714342108951833        42.257066596532127        0.0000000000000000     
   Std. sigma scale                 :   31.655939944833793     
   Global smoothing scale Silverman :   3.3462281412633224     

 GPKDE compute density 
   initialSmoothing   :   3.3462281412633224        3.3462281412633224        0.0000000000000000     
 GPKDE Optimization -- Time: 8 -- Specie: 1
|-----------------------------------------------------------|
| Loop |  hHatOverLambda |     ALMISE      |      RMSE      |
|-----------------------------------------------------------|
     0  3.346228141E+000  0.000000000E+000  1.062770341E-004
     1  1.365321956E+000  2.353541727E-009  6.417641659E-005
     2  7.584458633E-001  1.161024903E-008  3.664572922E-005
     3  5.930110964E-001  3.844335990E-008  2.821623601E-005
     4  5.611755305E-001  7.991032876E-008  2.706282984E-005
     5  5.547478213E-001  1.205527925E-007  2.684937195E-005
    - Bandwidth convergence    9.9460E-03

GPKDE histogram statistics 
   Max count         :   325.00000000119093     
   Max raw density   :   325.00000000119093     
   Min count         :   0.0000000000000000     
   Min raw density   :   0.0000000000000000     
   Mean raw density  :   138.51207729519291     


GPKDE data points statistics 
   Mean coordinates                 :   64.949138861156371        100.79162929616973       0.50000000000000000     
   Std. dev. coordinates            :   25.778681967539441        42.499708432930440        0.0000000000000000     
   Std. sigma scale                 :   33.099644520835383     
   Global smoothing scale Silverman :   3.4988366213244415     

 GPKDE compute density 
   initialSmoothing   :   3.4988366213244415        3.4988366213244415        0.0000000000000000     
 GPKDE Optimization -- Time: 9 -- Specie: 1
|-----------------------------------------------------------|
| Loop |  hHatOverLambda |     ALMISE      |      RMSE      |
|-----------------------------------------------------------|
     0  3.498836621E+000  0.000000000E+000  1.052023469E-004
     1  1.371556604E+000  2.127435340E-009  6.376991783E-005
     2  7.561320765E-001  1.107486280E-008  3.655912456E-005
     3  5.920680520E-001  3.792579291E-008  2.795740288E-005
     4  5.595042632E-001  7.868243512E-008  2.685720014E-005
     5  5.523036475E-001  1.453755038E-007  2.664359825E-005
     6  5.499786441E-001  2.601671901E-007  2.656483002E-005
    - Bandwidth convergence    9.4237E-03

GPKDE histogram statistics 
   Max count         :   322.00000000117984     
   Max raw density   :   322.00000000117984     
   Min count         :   0.0000000000000000     
   Min raw density   :   0.0000000000000000     
   Mean raw density  :   132.86376274376664     


GPKDE data points statistics 
   Mean coordinates                 :   69.026385147894047        100.66946022877407       0.50000000000000000     
   Std. dev. coordinates            :   27.838978729605849        42.760593905168633        0.0000000000000000     
   Std. sigma scale                 :   34.502337083034000     
   Global smoothing scale Silverman :   3.6471098785188079     

 GPKDE compute density 
   initialSmoothing   :   3.6471098785188079        3.6471098785188079        0.0000000000000000     
 GPKDE Optimization -- Time: 10 -- Specie: 1
|-----------------------------------------------------------|
| Loop |  hHatOverLambda |     ALMISE      |      RMSE      |
|-----------------------------------------------------------|
     0  3.647109879E+000  0.000000000E+000  1.075432695E-004
     1  1.365354732E+000  1.997756278E-009  6.398936738E-005
     2  7.603022946E-001  1.052461894E-008  3.710617828E-005
     3  5.926304251E-001  3.855585347E-008  2.836197842E-005
     4  5.624627472E-001  8.251936608E-008  2.730262640E-005
     5  5.551894767E-001  1.320372174E-007  2.709233695E-005
    - Bandwidth convergence    9.6776E-03

GPKDE histogram statistics 
   Max count         :   309.00000000113221     
   Max raw density   :   309.00000000113221     
   Min count         :   0.0000000000000000     
   Min raw density   :   0.0000000000000000     
   Mean raw density  :   127.27272727319233     


GPKDE data points statistics 
   Mean coordinates                 :   73.180519423592443        100.61523810148877       0.50000000000000000     
   Std. dev. coordinates            :   29.884010387487169        43.039908987156196        0.0000000000000000     
   Std. sigma scale                 :   35.863701527431303     
   Global smoothing scale Silverman :   3.7910144987037158     

 GPKDE compute density 
   initialSmoothing   :   3.7910144987037158        3.7910144987037158        0.0000000000000000     
 GPKDE Optimization -- Time: 11 -- Specie: 1
|-----------------------------------------------------------|
| Loop |  hHatOverLambda |     ALMISE      |      RMSE      |
|-----------------------------------------------------------|
     0  3.791014499E+000  0.000000000E+000  1.051073130E-004
     1  1.392235261E+000  1.741507332E-009  6.352002735E-005
     2  7.704767183E-001  9.519278564E-009  3.631807064E-005
     3  5.985353121E-001  3.826633185E-008  2.764836006E-005
     4  5.679130279E-001  9.214029056E-008  2.665004386E-005
     5  5.610420091E-001  1.658406972E-007  2.644644929E-005
     6  5.608642207E-001  2.465407184E-007  2.644135018E-005
     7  5.600215287E-001  3.534740125E-007  2.645999433E-005
     8  5.602060238E-001  4.613527546E-007  2.643652783E-005
     9  5.594749873E-001  4.942440614E-007  2.644464383E-005
    10  5.599940876E-001  5.126470723E-007  2.643684181E-005
    - ALMISE convergence    5.1369E-07

GPKDE histogram statistics 
   Max count         :   308.00000000112857     
   Max raw density   :   308.00000000112857     
   Min count         :   0.0000000000000000     
   Min raw density   :   0.0000000000000000     
   Mean raw density  :   122.07084468709462     


GPKDE data points statistics 
   Mean coordinates                 :   77.321686940960660        100.65911578078060       0.50000000000000000     
   Std. dev. coordinates            :   31.870339308194541        43.281705192042224        0.0000000000000000     
   Std. sigma scale                 :   37.140310045927606     
   Global smoothing scale Silverman :   3.9259598946519403     

 GPKDE compute density 
   initialSmoothing   :   3.9259598946519403        3.9259598946519403        0.0000000000000000     
 GPKDE Optimization -- Time: 12 -- Specie: 1
|-----------------------------------------------------------|
| Loop |  hHatOverLambda |     ALMISE      |      RMSE      |
|-----------------------------------------------------------|
     0  3.925959895E+000  0.000000000E+000  1.017776998E-004
     1  1.384657133E+000  1.681275526E-009  6.094249417E-005
     2  7.686461191E-001  9.240599437E-009  3.459781465E-005
     3  6.024825454E-001  3.797210950E-008  2.646319600E-005
     4  5.697132418E-001  9.608635007E-008  2.548937215E-005
     5  5.628035588E-001  1.792006054E-007  2.529375965E-005
     6  5.615178682E-001  3.665416864E-007  2.527503017E-005
    - Bandwidth convergence    9.0018E-03

GPKDE histogram statistics 
   Max count         :   320.00000000117251     
   Max raw density   :   320.00000000117251     
   Min count         :   0.0000000000000000     
   Min raw density   :   0.0000000000000000     
   Mean raw density  :   116.87591716983908     


GPKDE data points statistics 
   Mean coordinates                 :   81.424829298703372        100.73285337528880       0.50000000000000000     
   Std. dev. coordinates            :   33.862029872183591        43.560417680246964        0.0000000000000000     
   Std. sigma scale                 :   38.406303710892523     
   Global smoothing scale Silverman :   4.0597832350976581     

 GPKDE compute density 
   initialSmoothing   :   4.0597832350976581        4.0597832350976581        0.0000000000000000     
 GPKDE Optimization -- Time: 13 -- Specie: 1
|-----------------------------------------------------------|
| Loop |  hHatOverLambda |     ALMISE      |      RMSE      |
|-----------------------------------------------------------|
     0  4.059783235E+000  0.000000000E+000  1.033637657E-004
     1  1.361303627E+000  1.554957351E-009  5.865375948E-005
     2  7.633761058E-001  9.242174886E-009  3.346759426E-005
     3  6.037993885E-001  3.814298444E-008  2.586541508E-005
     4  5.728327065E-001  8.327591579E-008  2.500226699E-005
     5  5.657185660E-001  1.490670483E-007  2.480865953E-005
     6  5.655297904E-001  2.505750397E-007  2.479947770E-005
     7  5.651977591E-001  3.779346637E-007  2.477763562E-005
     8  5.642104180E-001  5.282322716E-007  2.474356501E-005
     9  5.639929715E-001  5.996018294E-007  2.474976993E-005